<?xml version="1.0" encoding="UTF-8"?>

<!-- generated on 2023-07-18 12:58:15 by Eclipse SUMO GUI Version 1.14.1
-->

<configuration xmlns:xsi="http://www.w3.org/2001/XMLSchema-instance" xsi:noNamespaceSchemaLocation="http://sumo.dlr.de/xsd/sumoConfiguration.xsd">

    <input>
        <net-file value="../net/G16.net.xml"/>
        <route-files value="../rou/G16_100v_noLC.rou.xml"/>
    </input>

</configuration>
