<?xml version="1.0" encoding="UTF-8"?>

<!-- generated on 2024-04-24 00:30:21 by Eclipse SUMO GUI Version 1.14.1
-->

<configuration xmlns:xsi="http://www.w3.org/2001/XMLSchema-instance" xsi:noNamespaceSchemaLocation="http://sumo.dlr.de/xsd/sumoConfiguration.xsd">

    <input>
        <net-file value="../net/Town03.net.xml"/>
        <additional-files value="../add/Town03_equal_reroute.add.xml"/>
        <route-files value="../rou/Town03_100v_LC.rou.xml"/>
    </input>

</configuration>
