<?xml version="1.0" encoding="UTF-8"?>

<!-- generated on 2024-04-24 00:30:21 by Eclipse SUMO GUI Version 1.14.1
-->

<configuration xmlns:xsi="http://www.w3.org/2001/XMLSchema-instance" xsi:noNamespaceSchemaLocation="http://sumo.dlr.de/xsd/sumoConfiguration.xsd">

    <input>
        <net-file value="../net/Town01.net.xml"/>
        <route-files value="../rou/Town01_50v_LC.rou.xml"/>
    </input>

</configuration>
