<?xml version="1.0" encoding="UTF-8"?>

<!-- generated on 2023-07-17 22:02:54 by Eclipse SUMO netedit Version 1.14.1
-->

<routes xmlns:xsi="http://www.w3.org/2001/XMLSchema-instance" xsi:noNamespaceSchemaLocation="http://sumo.dlr.de/xsd/routes_file.xsd">
    <!-- VTypes -->
    <vType id="t_0" guiShape="passenger/hatchback" color="orange" lcStrategic="0" lcCooperative="0" lcSpeedGain="0" lcKeepRight="0" lcSublane="0"/>
    <!-- Vehicles, persons and containers (sorted by depart) -->
    <flow id="f_0" type="t_0" begin="0.00" from="15" to="15" number="7" vehsPerHour="1800.00" departLane="random"/>
    <flow id="f_1" type="t_0" begin="0.00" from="12" to="12" number="7" vehsPerHour="1800.00" departLane="random"/>
    <flow id="f_10" type="t_0" begin="0.00" from="5" to="5" number="6" vehsPerHour="1800.00" departLane="random"/>
    <flow id="f_11" type="t_0" begin="0.00" from="4" to="4" number="6" vehsPerHour="1800.00" departLane="random"/>
    <flow id="f_12" type="t_0" begin="0.00" from="25" to="25" number="6" vehsPerHour="1800.00" departLane="random"/>
    <flow id="f_13" type="t_0" begin="0.00" from="3" to="3" number="6" vehsPerHour="1800.00" departLane="random"/>
    <flow id="f_14" type="t_0" begin="0.00" from="14" to="14" number="6" vehsPerHour="1800.00" departLane="random"/>
    <flow id="f_2" type="t_0" begin="0.00" from="22" to="22" number="7" vehsPerHour="1800.00" departLane="random"/>
    <flow id="f_3" type="t_0" begin="0.00" from="21" to="21" number="7" vehsPerHour="1800.00" departLane="random"/>
    <flow id="f_4" type="t_0" begin="0.00" from="-0" to="-0" number="7" vehsPerHour="1800.00" departLane="random"/>
    <flow id="f_5" type="t_0" begin="0.00" from="-24" to="-24" number="7" vehsPerHour="1800.00" departLane="random"/>
    <flow id="f_6" type="t_0" begin="0.00" from="16" to="16" number="7" vehsPerHour="1800.00" departLane="random"/>
    <flow id="f_7" type="t_0" begin="0.00" from="13" to="13" number="7" vehsPerHour="1800.00" departLane="random"/>
    <flow id="f_8" type="t_0" begin="0.00" from="6" to="6" number="7" vehsPerHour="1800.00" departLane="random"/>
    <flow id="f_9" type="t_0" begin="0.00" from="-11" to="-11" number="7" vehsPerHour="1800.00" departLane="random"/>
</routes>
