<?xml version="1.0" ?>
<routes>
    <flow id="f_0" type="DEFAULT_VEHTYPE" from="-0" to="-0" vehsPerHour="1000.00" departLane="random" begin="0.0" number="2"/>
    <flow id="f_1" type="DEFAULT_VEHTYPE" from="0" to="0" vehsPerHour="1000.00" departLane="random" begin="0.0" number="2"/>
    <flow id="f_2" type="DEFAULT_VEHTYPE" from="-1" to="-1" vehsPerHour="1000.00" departLane="random" begin="0.0" number="2"/>
    <flow id="f_3" type="DEFAULT_VEHTYPE" from="1" to="1" vehsPerHour="1000.00" departLane="random" begin="0.0" number="2"/>
    <flow id="f_4" type="DEFAULT_VEHTYPE" from="-2" to="-2" vehsPerHour="1000.00" departLane="random" begin="0.0" number="2"/>
    <flow id="f_5" type="DEFAULT_VEHTYPE" from="2" to="2" vehsPerHour="1000.00" departLane="random" begin="0.0" number="2"/>
    <flow id="f_6" type="DEFAULT_VEHTYPE" from="-3" to="-3" vehsPerHour="1000.00" departLane="random" begin="0.0" number="2"/>
    <flow id="f_7" type="DEFAULT_VEHTYPE" from="3" to="3" vehsPerHour="1000.00" departLane="random" begin="0.0" number="2"/>
    <flow id="f_8" type="DEFAULT_VEHTYPE" from="-4" to="-4" vehsPerHour="1000.00" departLane="random" begin="0.0" number="2"/>
    <flow id="f_9" type="DEFAULT_VEHTYPE" from="4" to="4" vehsPerHour="1000.00" departLane="random" begin="0.0" number="2"/>
    <flow id="f_10" type="DEFAULT_VEHTYPE" from="-77" to="-77" vehsPerHour="1000.00" departLane="random" begin="0.0" number="2"/>
    <flow id="f_11" type="DEFAULT_VEHTYPE" from="77" to="77" vehsPerHour="1000.00" departLane="random" begin="0.0" number="2"/>
    <flow id="f_12" type="DEFAULT_VEHTYPE" from="-78" to="-78" vehsPerHour="1000.00" departLane="random" begin="0.0" number="2"/>
    <flow id="f_13" type="DEFAULT_VEHTYPE" from="78" to="78" vehsPerHour="1000.00" departLane="random" begin="0.0" number="2"/>
    <flow id="f_14" type="DEFAULT_VEHTYPE" from="-76" to="-76" vehsPerHour="1000.00" departLane="random" begin="0.0" number="2"/>
    <flow id="f_15" type="DEFAULT_VEHTYPE" from="76" to="76" vehsPerHour="1000.00" departLane="random" begin="0.0" number="2"/>
    <flow id="f_16" type="DEFAULT_VEHTYPE" from="-75" to="-75" vehsPerHour="1000.00" departLane="random" begin="0.0" number="2"/>
    <flow id="f_17" type="DEFAULT_VEHTYPE" from="75" to="75" vehsPerHour="1000.00" departLane="random" begin="0.0" number="2"/>
    <flow id="f_18" type="DEFAULT_VEHTYPE" from="-74" to="-74" vehsPerHour="1000.00" departLane="random" begin="0.0" number="2"/>
    <flow id="f_19" type="DEFAULT_VEHTYPE" from="74" to="74" vehsPerHour="1000.00" departLane="random" begin="0.0" number="2"/>
    <flow id="f_20" type="DEFAULT_VEHTYPE" from="-87" to="-87" vehsPerHour="1000.00" departLane="random" begin="0.0" number="2"/>
    <flow id="f_21" type="DEFAULT_VEHTYPE" from="87" to="87" vehsPerHour="1000.00" departLane="random" begin="0.0" number="2"/>
    <flow id="f_22" type="DEFAULT_VEHTYPE" from="-19" to="-19" vehsPerHour="1000.00" departLane="random" begin="0.0" number="2"/>
    <flow id="f_23" type="DEFAULT_VEHTYPE" from="19" to="19" vehsPerHour="1000.00" departLane="random" begin="0.0" number="2"/>
    <flow id="f_24" type="DEFAULT_VEHTYPE" from="-20" to="-20" vehsPerHour="1000.00" departLane="random" begin="0.0" number="2"/>
    <flow id="f_25" type="DEFAULT_VEHTYPE" from="20" to="20" vehsPerHour="1000.00" departLane="random" begin="0.0" number="2"/>
    <flow id="f_26" type="DEFAULT_VEHTYPE" from="-21" to="-21" vehsPerHour="1000.00" departLane="random" begin="0.0" number="2"/>
    <flow id="f_27" type="DEFAULT_VEHTYPE" from="21" to="21" vehsPerHour="1000.00" departLane="random" begin="0.0" number="2"/>
    <flow id="f_28" type="DEFAULT_VEHTYPE" from="-22" to="-22" vehsPerHour="1000.00" departLane="random" begin="0.0" number="2"/>
    <flow id="f_29" type="DEFAULT_VEHTYPE" from="22" to="22" vehsPerHour="1000.00" departLane="random" begin="0.0" number="2"/>
    <flow id="f_30" type="DEFAULT_VEHTYPE" from="-52" to="-52" vehsPerHour="1000.00" departLane="random" begin="0.0" number="2"/>
    <flow id="f_31" type="DEFAULT_VEHTYPE" from="-23" to="-23" vehsPerHour="1000.00" departLane="random" begin="0.0" number="1"/>
    <flow id="f_32" type="DEFAULT_VEHTYPE" from="23" to="23" vehsPerHour="1000.00" departLane="random" begin="0.0" number="1"/>
    <flow id="f_33" type="DEFAULT_VEHTYPE" from="-25" to="-25" vehsPerHour="1000.00" departLane="random" begin="0.0" number="1"/>
    <flow id="f_34" type="DEFAULT_VEHTYPE" from="25" to="25" vehsPerHour="1000.00" departLane="random" begin="0.0" number="1"/>
    <flow id="f_35" type="DEFAULT_VEHTYPE" from="-90" to="-90" vehsPerHour="1000.00" departLane="random" begin="0.0" number="1"/>
    <flow id="f_36" type="DEFAULT_VEHTYPE" from="90" to="90" vehsPerHour="1000.00" departLane="random" begin="0.0" number="1"/>
    <flow id="f_37" type="DEFAULT_VEHTYPE" from="-57" to="-57" vehsPerHour="1000.00" departLane="random" begin="0.0" number="1"/>
    <flow id="f_38" type="DEFAULT_VEHTYPE" from="57" to="57" vehsPerHour="1000.00" departLane="random" begin="0.0" number="1"/>
    <flow id="f_39" type="DEFAULT_VEHTYPE" from="-92" to="-92" vehsPerHour="1000.00" departLane="random" begin="0.0" number="1"/>
    <flow id="f_40" type="DEFAULT_VEHTYPE" from="-56" to="-56" vehsPerHour="1000.00" departLane="random" begin="0.0" number="1"/>
    <flow id="f_41" type="DEFAULT_VEHTYPE" from="56" to="56" vehsPerHour="1000.00" departLane="random" begin="0.0" number="1"/>
    <flow id="f_42" type="DEFAULT_VEHTYPE" from="-5" to="-5" vehsPerHour="1000.00" departLane="random" begin="0.0" number="1"/>
    <flow id="f_43" type="DEFAULT_VEHTYPE" from="6" to="6" vehsPerHour="1000.00" departLane="random" begin="0.0" number="1"/>
    <flow id="f_44" type="DEFAULT_VEHTYPE" from="-7" to="-7" vehsPerHour="1000.00" departLane="random" begin="0.0" number="1"/>
    <flow id="f_45" type="DEFAULT_VEHTYPE" from="7" to="7" vehsPerHour="1000.00" departLane="random" begin="0.0" number="1"/>
    <flow id="f_46" type="DEFAULT_VEHTYPE" from="-8" to="-8" vehsPerHour="1000.00" departLane="random" begin="0.0" number="1"/>
    <flow id="f_47" type="DEFAULT_VEHTYPE" from="8" to="8" vehsPerHour="1000.00" departLane="random" begin="0.0" number="1"/>
    <flow id="f_48" type="DEFAULT_VEHTYPE" from="-68" to="-68" vehsPerHour="1000.00" departLane="random" begin="0.0" number="1"/>
    <flow id="f_49" type="DEFAULT_VEHTYPE" from="68" to="68" vehsPerHour="1000.00" departLane="random" begin="0.0" number="1"/>
    <flow id="f_50" type="DEFAULT_VEHTYPE" from="-65" to="-65" vehsPerHour="1000.00" departLane="random" begin="0.0" number="1"/>
    <flow id="f_51" type="DEFAULT_VEHTYPE" from="-87" to="-87" vehsPerHour="1000.00" departLane="random" begin="0.0" number="1"/>
    <flow id="f_52" type="DEFAULT_VEHTYPE" from="87" to="87" vehsPerHour="1000.00" departLane="random" begin="0.0" number="1"/>
    <flow id="f_53" type="DEFAULT_VEHTYPE" from="-88" to="-88" vehsPerHour="1000.00" departLane="random" begin="0.0" number="1"/>
    <flow id="f_54" type="DEFAULT_VEHTYPE" from="88" to="88" vehsPerHour="1000.00" departLane="random" begin="0.0" number="1"/>
    <flow id="f_55" type="DEFAULT_VEHTYPE" from="-89" to="-89" vehsPerHour="1000.00" departLane="random" begin="0.0" number="1"/>
    <flow id="f_56" type="DEFAULT_VEHTYPE" from="89" to="89" vehsPerHour="1000.00" departLane="random" begin="0.0" number="1"/>
    <flow id="f_57" type="DEFAULT_VEHTYPE" from="-49" to="-49" vehsPerHour="1000.00" departLane="random" begin="0.0" number="1"/>
    <flow id="f_58" type="DEFAULT_VEHTYPE" from="49" to="49" vehsPerHour="1000.00" departLane="random" begin="0.0" number="1"/>
    <flow id="f_59" type="DEFAULT_VEHTYPE" from="-50" to="-50" vehsPerHour="1000.00" departLane="random" begin="0.0" number="1"/>
    <flow id="f_60" type="DEFAULT_VEHTYPE" from="50" to="50" vehsPerHour="1000.00" departLane="random" begin="0.0" number="1"/>
    <flow id="f_61" type="DEFAULT_VEHTYPE" from="-51" to="-51" vehsPerHour="1000.00" departLane="random" begin="0.0" number="1"/>
    <flow id="f_62" type="DEFAULT_VEHTYPE" from="51" to="51" vehsPerHour="1000.00" departLane="random" begin="0.0" number="1"/>
    <flow id="f_63" type="DEFAULT_VEHTYPE" from="-31" to="-31" vehsPerHour="1000.00" departLane="random" begin="0.0" number="1"/>
    <flow id="f_64" type="DEFAULT_VEHTYPE" from="31" to="31" vehsPerHour="1000.00" departLane="random" begin="0.0" number="1"/>
    <flow id="f_65" type="DEFAULT_VEHTYPE" from="-32" to="-32" vehsPerHour="1000.00" departLane="random" begin="0.0" number="1"/>
    <flow id="f_66" type="DEFAULT_VEHTYPE" from="32" to="32" vehsPerHour="1000.00" departLane="random" begin="0.0" number="1"/>
    <flow id="f_67" type="DEFAULT_VEHTYPE" from="-34" to="-34" vehsPerHour="1000.00" departLane="random" begin="0.0" number="1"/>
    <flow id="f_68" type="DEFAULT_VEHTYPE" from="34" to="34" vehsPerHour="1000.00" departLane="random" begin="0.0" number="1"/>
</routes>
