<?xml version="1.0" ?>
<routes>
    <flow id="f_0" type="DEFAULT_VEHTYPE" from="0" to="0" vehsPerHour="1000.00" departLane="random" begin="0.0" number="3"/>
    <flow id="f_1" type="DEFAULT_VEHTYPE" from="1" to="1" vehsPerHour="1000.00" departLane="random" begin="0.0" number="3"/>
    <flow id="f_2" type="DEFAULT_VEHTYPE" from="-1" to="-1" vehsPerHour="1000.00" departLane="random" begin="0.0" number="3"/>
    <flow id="f_3" type="DEFAULT_VEHTYPE" from="2" to="2" vehsPerHour="1000.00" departLane="random" begin="0.0" number="3"/>
    <flow id="f_4" type="DEFAULT_VEHTYPE" from="-2" to="-2" vehsPerHour="1000.00" departLane="random" begin="0.0" number="3"/>
    <flow id="f_5" type="DEFAULT_VEHTYPE" from="-3" to="-3" vehsPerHour="1000.00" departLane="random" begin="0.0" number="3"/>
    <flow id="f_6" type="DEFAULT_VEHTYPE" from="-4" to="-4" vehsPerHour="1000.00" departLane="random" begin="0.0" number="3"/>
    <flow id="f_7" type="DEFAULT_VEHTYPE" from="4" to="4" vehsPerHour="1000.00" departLane="random" begin="0.0" number="3"/>
    <flow id="f_8" type="DEFAULT_VEHTYPE" from="5" to="5" vehsPerHour="1000.00" departLane="random" begin="0.0" number="3"/>
    <flow id="f_9" type="DEFAULT_VEHTYPE" from="6" to="6" vehsPerHour="1000.00" departLane="random" begin="0.0" number="3"/>
    <flow id="f_10" type="DEFAULT_VEHTYPE" from="-6" to="-6" vehsPerHour="1000.00" departLane="random" begin="0.0" number="3"/>
    <flow id="f_11" type="DEFAULT_VEHTYPE" from="7" to="7" vehsPerHour="1000.00" departLane="random" begin="0.0" number="3"/>
    <flow id="f_12" type="DEFAULT_VEHTYPE" from="-7" to="-7" vehsPerHour="1000.00" departLane="random" begin="0.0" number="3"/>
    <flow id="f_13" type="DEFAULT_VEHTYPE" from="-8" to="-8" vehsPerHour="1000.00" departLane="random" begin="0.0" number="3"/>
    <flow id="f_14" type="DEFAULT_VEHTYPE" from="-9" to="-9" vehsPerHour="1000.00" departLane="random" begin="0.0" number="3"/>
    <flow id="f_15" type="DEFAULT_VEHTYPE" from="9" to="9" vehsPerHour="1000.00" departLane="random" begin="0.0" number="3"/>
    <flow id="f_16" type="DEFAULT_VEHTYPE" from="10" to="10" vehsPerHour="1000.00" departLane="random" begin="0.0" number="3"/>
    <flow id="f_17" type="DEFAULT_VEHTYPE" from="-10" to="-10" vehsPerHour="1000.00" departLane="random" begin="0.0" number="3"/>
    <flow id="f_18" type="DEFAULT_VEHTYPE" from="12" to="12" vehsPerHour="1000.00" departLane="random" begin="0.0" number="3"/>
    <flow id="f_19" type="DEFAULT_VEHTYPE" from="-12" to="-12" vehsPerHour="1000.00" departLane="random" begin="0.0" number="3"/>
    <flow id="f_20" type="DEFAULT_VEHTYPE" from="16" to="16" vehsPerHour="1000.00" departLane="random" begin="0.0" number="3"/>
    <flow id="f_21" type="DEFAULT_VEHTYPE" from="-16" to="-16" vehsPerHour="1000.00" departLane="random" begin="0.0" number="3"/>
    <flow id="f_22" type="DEFAULT_VEHTYPE" from="17" to="17" vehsPerHour="1000.00" departLane="random" begin="0.0" number="3"/>
    <flow id="f_23" type="DEFAULT_VEHTYPE" from="-17" to="-17" vehsPerHour="1000.00" departLane="random" begin="0.0" number="3"/>
    <flow id="f_24" type="DEFAULT_VEHTYPE" from="18" to="18" vehsPerHour="1000.00" departLane="random" begin="0.0" number="2"/>
    <flow id="f_25" type="DEFAULT_VEHTYPE" from="-18" to="-18" vehsPerHour="1000.00" departLane="random" begin="0.0" number="2"/>
    <flow id="f_26" type="DEFAULT_VEHTYPE" from="-19" to="-19" vehsPerHour="1000.00" departLane="random" begin="0.0" number="2"/>
    <flow id="f_27" type="DEFAULT_VEHTYPE" from="19" to="19" vehsPerHour="1000.00" departLane="random" begin="0.0" number="2"/>
    <flow id="f_28" type="DEFAULT_VEHTYPE" from="21" to="21" vehsPerHour="1000.00" departLane="random" begin="0.0" number="2"/>
    <flow id="f_29" type="DEFAULT_VEHTYPE" from="-21" to="-21" vehsPerHour="1000.00" departLane="random" begin="0.0" number="2"/>
    <flow id="f_30" type="DEFAULT_VEHTYPE" from="22" to="22" vehsPerHour="1000.00" departLane="random" begin="0.0" number="2"/>
    <flow id="f_31" type="DEFAULT_VEHTYPE" from="-22" to="-22" vehsPerHour="1000.00" departLane="random" begin="0.0" number="2"/>
    <flow id="f_32" type="DEFAULT_VEHTYPE" from="23" to="23" vehsPerHour="1000.00" departLane="random" begin="0.0" number="2"/>
    <flow id="f_33" type="DEFAULT_VEHTYPE" from="-23" to="-23" vehsPerHour="1000.00" departLane="random" begin="0.0" number="2"/>
    <flow id="f_34" type="DEFAULT_VEHTYPE" from="24" to="24" vehsPerHour="1000.00" departLane="random" begin="0.0" number="2"/>
    <flow id="f_35" type="DEFAULT_VEHTYPE" from="-24" to="-24" vehsPerHour="1000.00" departLane="random" begin="0.0" number="2"/>
    <flow id="f_36" type="DEFAULT_VEHTYPE" from="25" to="25" vehsPerHour="1000.00" departLane="random" begin="0.0" number="2"/>
    <flow id="f_37" type="DEFAULT_VEHTYPE" from="-25" to="-25" vehsPerHour="1000.00" departLane="random" begin="0.0" number="2"/>
</routes>
