<?xml version="1.0" encoding="UTF-8"?>

<!-- generated on 2023-07-30 11:09:37 by Eclipse SUMO netedit Version 1.14.1
-->

<additional xmlns:xsi="http://www.w3.org/2001/XMLSchema-instance" xsi:noNamespaceSchemaLocation="http://sumo.dlr.de/xsd/additional_file.xsd">
    <!-- Other additionals -->
    <rerouter id="rr_0" edges="16" pos="221.10,268.23">
        <interval begin="0.00" end="3600.00">
            <destProbReroute id="16" probability="1.00"/>
        </interval>
    </rerouter>
    <rerouter id="rr_1" edges="5" pos="287.98,401.12">
        <interval begin="0.00" end="3600.00">
            <destProbReroute id="16" probability="1.00"/>
        </interval>
    </rerouter>
</additional>
