<?xml version="1.0" ?>
<additional>
    <rerouter id="rr_0" edges="16" pos="0.0">
        <interval begin="0.0" end="3600.00">
            <destProbReroute id="-11" probability="0.071"/>
            <destProbReroute id="-0" probability="0.071"/>
            <destProbReroute id="3" probability="0.071"/>
            <destProbReroute id="6" probability="0.071"/>
            <destProbReroute id="-24" probability="0.071"/>
            <destProbReroute id="13" probability="0.071"/>
            <destProbReroute id="15" probability="0.071"/>
            <destProbReroute id="12" probability="0.071"/>
            <destProbReroute id="4" probability="0.071"/>
            <destProbReroute id="22" probability="0.071"/>
            <destProbReroute id="25" probability="0.071"/>
            <destProbReroute id="5" probability="0.071"/>
            <destProbReroute id="21" probability="0.071"/>
            <destProbReroute id="14" probability="0.077"/>
        </interval>
    </rerouter>
    <rerouter id="rr_1" edges="-11" pos="0.0">
        <interval begin="0.0" end="3600.00">
            <destProbReroute id="16" probability="0.071"/>
            <destProbReroute id="-0" probability="0.071"/>
            <destProbReroute id="3" probability="0.071"/>
            <destProbReroute id="6" probability="0.071"/>
            <destProbReroute id="-24" probability="0.071"/>
            <destProbReroute id="13" probability="0.071"/>
            <destProbReroute id="15" probability="0.071"/>
            <destProbReroute id="12" probability="0.071"/>
            <destProbReroute id="4" probability="0.071"/>
            <destProbReroute id="22" probability="0.071"/>
            <destProbReroute id="25" probability="0.071"/>
            <destProbReroute id="5" probability="0.071"/>
            <destProbReroute id="21" probability="0.071"/>
            <destProbReroute id="14" probability="0.077"/>
        </interval>
    </rerouter>
    <rerouter id="rr_2" edges="-0" pos="0.0">
        <interval begin="0.0" end="3600.00">
            <destProbReroute id="16" probability="0.071"/>
            <destProbReroute id="-11" probability="0.071"/>
            <destProbReroute id="3" probability="0.071"/>
            <destProbReroute id="6" probability="0.071"/>
            <destProbReroute id="-24" probability="0.071"/>
            <destProbReroute id="13" probability="0.071"/>
            <destProbReroute id="15" probability="0.071"/>
            <destProbReroute id="12" probability="0.071"/>
            <destProbReroute id="4" probability="0.071"/>
            <destProbReroute id="22" probability="0.071"/>
            <destProbReroute id="25" probability="0.071"/>
            <destProbReroute id="5" probability="0.071"/>
            <destProbReroute id="21" probability="0.071"/>
            <destProbReroute id="14" probability="0.077"/>
        </interval>
    </rerouter>
    <rerouter id="rr_3" edges="3" pos="0.0">
        <interval begin="0.0" end="3600.00">
            <destProbReroute id="16" probability="0.071"/>
            <destProbReroute id="-11" probability="0.071"/>
            <destProbReroute id="-0" probability="0.071"/>
            <destProbReroute id="6" probability="0.071"/>
            <destProbReroute id="-24" probability="0.071"/>
            <destProbReroute id="13" probability="0.071"/>
            <destProbReroute id="15" probability="0.071"/>
            <destProbReroute id="12" probability="0.071"/>
            <destProbReroute id="4" probability="0.071"/>
            <destProbReroute id="22" probability="0.071"/>
            <destProbReroute id="25" probability="0.071"/>
            <destProbReroute id="5" probability="0.071"/>
            <destProbReroute id="21" probability="0.071"/>
            <destProbReroute id="14" probability="0.077"/>
        </interval>
    </rerouter>
    <rerouter id="rr_4" edges="6" pos="0.0">
        <interval begin="0.0" end="3600.00">
            <destProbReroute id="16" probability="0.071"/>
            <destProbReroute id="-11" probability="0.071"/>
            <destProbReroute id="-0" probability="0.071"/>
            <destProbReroute id="3" probability="0.071"/>
            <destProbReroute id="-24" probability="0.071"/>
            <destProbReroute id="13" probability="0.071"/>
            <destProbReroute id="15" probability="0.071"/>
            <destProbReroute id="12" probability="0.071"/>
            <destProbReroute id="4" probability="0.071"/>
            <destProbReroute id="22" probability="0.071"/>
            <destProbReroute id="25" probability="0.071"/>
            <destProbReroute id="5" probability="0.071"/>
            <destProbReroute id="21" probability="0.071"/>
            <destProbReroute id="14" probability="0.077"/>
        </interval>
    </rerouter>
    <rerouter id="rr_5" edges="-24" pos="0.0">
        <interval begin="0.0" end="3600.00">
            <destProbReroute id="16" probability="0.071"/>
            <destProbReroute id="-11" probability="0.071"/>
            <destProbReroute id="-0" probability="0.071"/>
            <destProbReroute id="3" probability="0.071"/>
            <destProbReroute id="6" probability="0.071"/>
            <destProbReroute id="13" probability="0.071"/>
            <destProbReroute id="15" probability="0.071"/>
            <destProbReroute id="12" probability="0.071"/>
            <destProbReroute id="4" probability="0.071"/>
            <destProbReroute id="22" probability="0.071"/>
            <destProbReroute id="25" probability="0.071"/>
            <destProbReroute id="5" probability="0.071"/>
            <destProbReroute id="21" probability="0.071"/>
            <destProbReroute id="14" probability="0.077"/>
        </interval>
    </rerouter>
    <rerouter id="rr_6" edges="13" pos="0.0">
        <interval begin="0.0" end="3600.00">
            <destProbReroute id="16" probability="0.071"/>
            <destProbReroute id="-11" probability="0.071"/>
            <destProbReroute id="-0" probability="0.071"/>
            <destProbReroute id="3" probability="0.071"/>
            <destProbReroute id="6" probability="0.071"/>
            <destProbReroute id="-24" probability="0.071"/>
            <destProbReroute id="15" probability="0.071"/>
            <destProbReroute id="12" probability="0.071"/>
            <destProbReroute id="4" probability="0.071"/>
            <destProbReroute id="22" probability="0.071"/>
            <destProbReroute id="25" probability="0.071"/>
            <destProbReroute id="5" probability="0.071"/>
            <destProbReroute id="21" probability="0.071"/>
            <destProbReroute id="14" probability="0.077"/>
        </interval>
    </rerouter>
    <rerouter id="rr_7" edges="15" pos="0.0">
        <interval begin="0.0" end="3600.00">
            <destProbReroute id="16" probability="0.071"/>
            <destProbReroute id="-11" probability="0.071"/>
            <destProbReroute id="-0" probability="0.071"/>
            <destProbReroute id="3" probability="0.071"/>
            <destProbReroute id="6" probability="0.071"/>
            <destProbReroute id="-24" probability="0.071"/>
            <destProbReroute id="13" probability="0.071"/>
            <destProbReroute id="12" probability="0.071"/>
            <destProbReroute id="4" probability="0.071"/>
            <destProbReroute id="22" probability="0.071"/>
            <destProbReroute id="25" probability="0.071"/>
            <destProbReroute id="5" probability="0.071"/>
            <destProbReroute id="21" probability="0.071"/>
            <destProbReroute id="14" probability="0.077"/>
        </interval>
    </rerouter>
    <rerouter id="rr_8" edges="12" pos="0.0">
        <interval begin="0.0" end="3600.00">
            <destProbReroute id="16" probability="0.071"/>
            <destProbReroute id="-11" probability="0.071"/>
            <destProbReroute id="-0" probability="0.071"/>
            <destProbReroute id="3" probability="0.071"/>
            <destProbReroute id="6" probability="0.071"/>
            <destProbReroute id="-24" probability="0.071"/>
            <destProbReroute id="13" probability="0.071"/>
            <destProbReroute id="15" probability="0.071"/>
            <destProbReroute id="4" probability="0.071"/>
            <destProbReroute id="22" probability="0.071"/>
            <destProbReroute id="25" probability="0.071"/>
            <destProbReroute id="5" probability="0.071"/>
            <destProbReroute id="21" probability="0.071"/>
            <destProbReroute id="14" probability="0.077"/>
        </interval>
    </rerouter>
    <rerouter id="rr_9" edges="4" pos="0.0">
        <interval begin="0.0" end="3600.00">
            <destProbReroute id="16" probability="0.071"/>
            <destProbReroute id="-11" probability="0.071"/>
            <destProbReroute id="-0" probability="0.071"/>
            <destProbReroute id="3" probability="0.071"/>
            <destProbReroute id="6" probability="0.071"/>
            <destProbReroute id="-24" probability="0.071"/>
            <destProbReroute id="13" probability="0.071"/>
            <destProbReroute id="15" probability="0.071"/>
            <destProbReroute id="12" probability="0.071"/>
            <destProbReroute id="22" probability="0.071"/>
            <destProbReroute id="25" probability="0.071"/>
            <destProbReroute id="5" probability="0.071"/>
            <destProbReroute id="21" probability="0.071"/>
            <destProbReroute id="14" probability="0.077"/>
        </interval>
    </rerouter>
    <rerouter id="rr_10" edges="22" pos="0.0">
        <interval begin="0.0" end="3600.00">
            <destProbReroute id="16" probability="0.071"/>
            <destProbReroute id="-11" probability="0.071"/>
            <destProbReroute id="-0" probability="0.071"/>
            <destProbReroute id="3" probability="0.071"/>
            <destProbReroute id="6" probability="0.071"/>
            <destProbReroute id="-24" probability="0.071"/>
            <destProbReroute id="13" probability="0.071"/>
            <destProbReroute id="15" probability="0.071"/>
            <destProbReroute id="12" probability="0.071"/>
            <destProbReroute id="4" probability="0.071"/>
            <destProbReroute id="25" probability="0.071"/>
            <destProbReroute id="5" probability="0.071"/>
            <destProbReroute id="21" probability="0.071"/>
            <destProbReroute id="14" probability="0.077"/>
        </interval>
    </rerouter>
    <rerouter id="rr_11" edges="25" pos="0.0">
        <interval begin="0.0" end="3600.00">
            <destProbReroute id="16" probability="0.071"/>
            <destProbReroute id="-11" probability="0.071"/>
            <destProbReroute id="-0" probability="0.071"/>
            <destProbReroute id="3" probability="0.071"/>
            <destProbReroute id="6" probability="0.071"/>
            <destProbReroute id="-24" probability="0.071"/>
            <destProbReroute id="13" probability="0.071"/>
            <destProbReroute id="15" probability="0.071"/>
            <destProbReroute id="12" probability="0.071"/>
            <destProbReroute id="4" probability="0.071"/>
            <destProbReroute id="22" probability="0.071"/>
            <destProbReroute id="5" probability="0.071"/>
            <destProbReroute id="21" probability="0.071"/>
            <destProbReroute id="14" probability="0.077"/>
        </interval>
    </rerouter>
    <rerouter id="rr_12" edges="5" pos="0.0">
        <interval begin="0.0" end="3600.00">
            <destProbReroute id="16" probability="0.071"/>
            <destProbReroute id="-11" probability="0.071"/>
            <destProbReroute id="-0" probability="0.071"/>
            <destProbReroute id="3" probability="0.071"/>
            <destProbReroute id="6" probability="0.071"/>
            <destProbReroute id="-24" probability="0.071"/>
            <destProbReroute id="13" probability="0.071"/>
            <destProbReroute id="15" probability="0.071"/>
            <destProbReroute id="12" probability="0.071"/>
            <destProbReroute id="4" probability="0.071"/>
            <destProbReroute id="22" probability="0.071"/>
            <destProbReroute id="25" probability="0.071"/>
            <destProbReroute id="21" probability="0.071"/>
            <destProbReroute id="14" probability="0.077"/>
        </interval>
    </rerouter>
    <rerouter id="rr_13" edges="21" pos="0.0">
        <interval begin="0.0" end="3600.00">
            <destProbReroute id="16" probability="0.071"/>
            <destProbReroute id="-11" probability="0.071"/>
            <destProbReroute id="-0" probability="0.071"/>
            <destProbReroute id="3" probability="0.071"/>
            <destProbReroute id="6" probability="0.071"/>
            <destProbReroute id="-24" probability="0.071"/>
            <destProbReroute id="13" probability="0.071"/>
            <destProbReroute id="15" probability="0.071"/>
            <destProbReroute id="12" probability="0.071"/>
            <destProbReroute id="4" probability="0.071"/>
            <destProbReroute id="22" probability="0.071"/>
            <destProbReroute id="25" probability="0.071"/>
            <destProbReroute id="5" probability="0.071"/>
            <destProbReroute id="14" probability="0.077"/>
        </interval>
    </rerouter>
    <rerouter id="rr_14" edges="14" pos="0.0">
        <interval begin="0.0" end="3600.00">
            <destProbReroute id="16" probability="0.071"/>
            <destProbReroute id="-11" probability="0.071"/>
            <destProbReroute id="-0" probability="0.071"/>
            <destProbReroute id="3" probability="0.071"/>
            <destProbReroute id="6" probability="0.071"/>
            <destProbReroute id="-24" probability="0.071"/>
            <destProbReroute id="13" probability="0.071"/>
            <destProbReroute id="15" probability="0.071"/>
            <destProbReroute id="12" probability="0.071"/>
            <destProbReroute id="4" probability="0.071"/>
            <destProbReroute id="22" probability="0.071"/>
            <destProbReroute id="25" probability="0.071"/>
            <destProbReroute id="5" probability="0.071"/>
            <destProbReroute id="21" probability="0.071"/>
        </interval>
    </rerouter>
</additional>
