<?xml version="1.0" ?>
<additional>
    <rerouter edges="0" id="rr_0" pos="0.0">
        <interval begin="0.0" end="3600.00">
            <destProbReroute id="1" probability="0.027"/>
            <destProbReroute id="-1" probability="0.027"/>
            <destProbReroute id="2" probability="0.027"/>
            <destProbReroute id="-2" probability="0.027"/>
            <destProbReroute id="-3" probability="0.027"/>
            <destProbReroute id="-4" probability="0.027"/>
            <destProbReroute id="4" probability="0.027"/>
            <destProbReroute id="5" probability="0.027"/>
            <destProbReroute id="6" probability="0.027"/>
            <destProbReroute id="-6" probability="0.027"/>
            <destProbReroute id="7" probability="0.027"/>
            <destProbReroute id="-7" probability="0.027"/>
            <destProbReroute id="-8" probability="0.027"/>
            <destProbReroute id="-9" probability="0.027"/>
            <destProbReroute id="9" probability="0.027"/>
            <destProbReroute id="10" probability="0.027"/>
            <destProbReroute id="-10" probability="0.027"/>
            <destProbReroute id="12" probability="0.027"/>
            <destProbReroute id="-12" probability="0.027"/>
            <destProbReroute id="16" probability="0.027"/>
            <destProbReroute id="-16" probability="0.027"/>
            <destProbReroute id="17" probability="0.027"/>
            <destProbReroute id="-17" probability="0.027"/>
            <destProbReroute id="18" probability="0.027"/>
            <destProbReroute id="-18" probability="0.027"/>
            <destProbReroute id="-19" probability="0.027"/>
            <destProbReroute id="19" probability="0.027"/>
            <destProbReroute id="21" probability="0.027"/>
            <destProbReroute id="-21" probability="0.027"/>
            <destProbReroute id="22" probability="0.027"/>
            <destProbReroute id="-22" probability="0.027"/>
            <destProbReroute id="23" probability="0.027"/>
            <destProbReroute id="-23" probability="0.027"/>
            <destProbReroute id="24" probability="0.027"/>
            <destProbReroute id="-24" probability="0.027"/>
            <destProbReroute id="25" probability="0.027"/>
            <destProbReroute id="-25" probability="0.028"/>
        </interval>
    </rerouter>
    <rerouter edges="1" id="rr_1" pos="0.0">
        <interval begin="0.0" end="3600.00">
            <destProbReroute id="0" probability="0.027"/>
            <destProbReroute id="-1" probability="0.027"/>
            <destProbReroute id="2" probability="0.027"/>
            <destProbReroute id="-2" probability="0.027"/>
            <destProbReroute id="-3" probability="0.027"/>
            <destProbReroute id="-4" probability="0.027"/>
            <destProbReroute id="4" probability="0.027"/>
            <destProbReroute id="5" probability="0.027"/>
            <destProbReroute id="6" probability="0.027"/>
            <destProbReroute id="-6" probability="0.027"/>
            <destProbReroute id="7" probability="0.027"/>
            <destProbReroute id="-7" probability="0.027"/>
            <destProbReroute id="-8" probability="0.027"/>
            <destProbReroute id="-9" probability="0.027"/>
            <destProbReroute id="9" probability="0.027"/>
            <destProbReroute id="10" probability="0.027"/>
            <destProbReroute id="-10" probability="0.027"/>
            <destProbReroute id="12" probability="0.027"/>
            <destProbReroute id="-12" probability="0.027"/>
            <destProbReroute id="16" probability="0.027"/>
            <destProbReroute id="-16" probability="0.027"/>
            <destProbReroute id="17" probability="0.027"/>
            <destProbReroute id="-17" probability="0.027"/>
            <destProbReroute id="18" probability="0.027"/>
            <destProbReroute id="-18" probability="0.027"/>
            <destProbReroute id="-19" probability="0.027"/>
            <destProbReroute id="19" probability="0.027"/>
            <destProbReroute id="21" probability="0.027"/>
            <destProbReroute id="-21" probability="0.027"/>
            <destProbReroute id="22" probability="0.027"/>
            <destProbReroute id="-22" probability="0.027"/>
            <destProbReroute id="23" probability="0.027"/>
            <destProbReroute id="-23" probability="0.027"/>
            <destProbReroute id="24" probability="0.027"/>
            <destProbReroute id="-24" probability="0.027"/>
            <destProbReroute id="25" probability="0.027"/>
            <destProbReroute id="-25" probability="0.028"/>
        </interval>
    </rerouter>
    <rerouter edges="-1" id="rr_2" pos="0.0">
        <interval begin="0.0" end="3600.00">
            <destProbReroute id="0" probability="0.027"/>
            <destProbReroute id="1" probability="0.027"/>
            <destProbReroute id="2" probability="0.027"/>
            <destProbReroute id="-2" probability="0.027"/>
            <destProbReroute id="-3" probability="0.027"/>
            <destProbReroute id="-4" probability="0.027"/>
            <destProbReroute id="4" probability="0.027"/>
            <destProbReroute id="5" probability="0.027"/>
            <destProbReroute id="6" probability="0.027"/>
            <destProbReroute id="-6" probability="0.027"/>
            <destProbReroute id="7" probability="0.027"/>
            <destProbReroute id="-7" probability="0.027"/>
            <destProbReroute id="-8" probability="0.027"/>
            <destProbReroute id="-9" probability="0.027"/>
            <destProbReroute id="9" probability="0.027"/>
            <destProbReroute id="10" probability="0.027"/>
            <destProbReroute id="-10" probability="0.027"/>
            <destProbReroute id="12" probability="0.027"/>
            <destProbReroute id="-12" probability="0.027"/>
            <destProbReroute id="16" probability="0.027"/>
            <destProbReroute id="-16" probability="0.027"/>
            <destProbReroute id="17" probability="0.027"/>
            <destProbReroute id="-17" probability="0.027"/>
            <destProbReroute id="18" probability="0.027"/>
            <destProbReroute id="-18" probability="0.027"/>
            <destProbReroute id="-19" probability="0.027"/>
            <destProbReroute id="19" probability="0.027"/>
            <destProbReroute id="21" probability="0.027"/>
            <destProbReroute id="-21" probability="0.027"/>
            <destProbReroute id="22" probability="0.027"/>
            <destProbReroute id="-22" probability="0.027"/>
            <destProbReroute id="23" probability="0.027"/>
            <destProbReroute id="-23" probability="0.027"/>
            <destProbReroute id="24" probability="0.027"/>
            <destProbReroute id="-24" probability="0.027"/>
            <destProbReroute id="25" probability="0.027"/>
            <destProbReroute id="-25" probability="0.028"/>
        </interval>
    </rerouter>
    <rerouter edges="2" id="rr_3" pos="0.0">
        <interval begin="0.0" end="3600.00">
            <destProbReroute id="0" probability="0.027"/>
            <destProbReroute id="1" probability="0.027"/>
            <destProbReroute id="-1" probability="0.027"/>
            <destProbReroute id="-2" probability="0.027"/>
            <destProbReroute id="-3" probability="0.027"/>
            <destProbReroute id="-4" probability="0.027"/>
            <destProbReroute id="4" probability="0.027"/>
            <destProbReroute id="5" probability="0.027"/>
            <destProbReroute id="6" probability="0.027"/>
            <destProbReroute id="-6" probability="0.027"/>
            <destProbReroute id="7" probability="0.027"/>
            <destProbReroute id="-7" probability="0.027"/>
            <destProbReroute id="-8" probability="0.027"/>
            <destProbReroute id="-9" probability="0.027"/>
            <destProbReroute id="9" probability="0.027"/>
            <destProbReroute id="10" probability="0.027"/>
            <destProbReroute id="-10" probability="0.027"/>
            <destProbReroute id="12" probability="0.027"/>
            <destProbReroute id="-12" probability="0.027"/>
            <destProbReroute id="16" probability="0.027"/>
            <destProbReroute id="-16" probability="0.027"/>
            <destProbReroute id="17" probability="0.027"/>
            <destProbReroute id="-17" probability="0.027"/>
            <destProbReroute id="18" probability="0.027"/>
            <destProbReroute id="-18" probability="0.027"/>
            <destProbReroute id="-19" probability="0.027"/>
            <destProbReroute id="19" probability="0.027"/>
            <destProbReroute id="21" probability="0.027"/>
            <destProbReroute id="-21" probability="0.027"/>
            <destProbReroute id="22" probability="0.027"/>
            <destProbReroute id="-22" probability="0.027"/>
            <destProbReroute id="23" probability="0.027"/>
            <destProbReroute id="-23" probability="0.027"/>
            <destProbReroute id="24" probability="0.027"/>
            <destProbReroute id="-24" probability="0.027"/>
            <destProbReroute id="25" probability="0.027"/>
            <destProbReroute id="-25" probability="0.028"/>
        </interval>
    </rerouter>
    <rerouter edges="-2" id="rr_4" pos="0.0">
        <interval begin="0.0" end="3600.00">
            <destProbReroute id="0" probability="0.027"/>
            <destProbReroute id="1" probability="0.027"/>
            <destProbReroute id="-1" probability="0.027"/>
            <destProbReroute id="2" probability="0.027"/>
            <destProbReroute id="-3" probability="0.027"/>
            <destProbReroute id="-4" probability="0.027"/>
            <destProbReroute id="4" probability="0.027"/>
            <destProbReroute id="5" probability="0.027"/>
            <destProbReroute id="6" probability="0.027"/>
            <destProbReroute id="-6" probability="0.027"/>
            <destProbReroute id="7" probability="0.027"/>
            <destProbReroute id="-7" probability="0.027"/>
            <destProbReroute id="-8" probability="0.027"/>
            <destProbReroute id="-9" probability="0.027"/>
            <destProbReroute id="9" probability="0.027"/>
            <destProbReroute id="10" probability="0.027"/>
            <destProbReroute id="-10" probability="0.027"/>
            <destProbReroute id="12" probability="0.027"/>
            <destProbReroute id="-12" probability="0.027"/>
            <destProbReroute id="16" probability="0.027"/>
            <destProbReroute id="-16" probability="0.027"/>
            <destProbReroute id="17" probability="0.027"/>
            <destProbReroute id="-17" probability="0.027"/>
            <destProbReroute id="18" probability="0.027"/>
            <destProbReroute id="-18" probability="0.027"/>
            <destProbReroute id="-19" probability="0.027"/>
            <destProbReroute id="19" probability="0.027"/>
            <destProbReroute id="21" probability="0.027"/>
            <destProbReroute id="-21" probability="0.027"/>
            <destProbReroute id="22" probability="0.027"/>
            <destProbReroute id="-22" probability="0.027"/>
            <destProbReroute id="23" probability="0.027"/>
            <destProbReroute id="-23" probability="0.027"/>
            <destProbReroute id="24" probability="0.027"/>
            <destProbReroute id="-24" probability="0.027"/>
            <destProbReroute id="25" probability="0.027"/>
            <destProbReroute id="-25" probability="0.028"/>
        </interval>
    </rerouter>
    <rerouter edges="-3" id="rr_5" pos="0.0">
        <interval begin="0.0" end="3600.00">
            <destProbReroute id="0" probability="0.027"/>
            <destProbReroute id="1" probability="0.027"/>
            <destProbReroute id="-1" probability="0.027"/>
            <destProbReroute id="2" probability="0.027"/>
            <destProbReroute id="-2" probability="0.027"/>
            <destProbReroute id="-4" probability="0.027"/>
            <destProbReroute id="4" probability="0.027"/>
            <destProbReroute id="5" probability="0.027"/>
            <destProbReroute id="6" probability="0.027"/>
            <destProbReroute id="-6" probability="0.027"/>
            <destProbReroute id="7" probability="0.027"/>
            <destProbReroute id="-7" probability="0.027"/>
            <destProbReroute id="-8" probability="0.027"/>
            <destProbReroute id="-9" probability="0.027"/>
            <destProbReroute id="9" probability="0.027"/>
            <destProbReroute id="10" probability="0.027"/>
            <destProbReroute id="-10" probability="0.027"/>
            <destProbReroute id="12" probability="0.027"/>
            <destProbReroute id="-12" probability="0.027"/>
            <destProbReroute id="16" probability="0.027"/>
            <destProbReroute id="-16" probability="0.027"/>
            <destProbReroute id="17" probability="0.027"/>
            <destProbReroute id="-17" probability="0.027"/>
            <destProbReroute id="18" probability="0.027"/>
            <destProbReroute id="-18" probability="0.027"/>
            <destProbReroute id="-19" probability="0.027"/>
            <destProbReroute id="19" probability="0.027"/>
            <destProbReroute id="21" probability="0.027"/>
            <destProbReroute id="-21" probability="0.027"/>
            <destProbReroute id="22" probability="0.027"/>
            <destProbReroute id="-22" probability="0.027"/>
            <destProbReroute id="23" probability="0.027"/>
            <destProbReroute id="-23" probability="0.027"/>
            <destProbReroute id="24" probability="0.027"/>
            <destProbReroute id="-24" probability="0.027"/>
            <destProbReroute id="25" probability="0.027"/>
            <destProbReroute id="-25" probability="0.028"/>
        </interval>
    </rerouter>
    <rerouter edges="-4" id="rr_6" pos="0.0">
        <interval begin="0.0" end="3600.00">
            <destProbReroute id="0" probability="0.027"/>
            <destProbReroute id="1" probability="0.027"/>
            <destProbReroute id="-1" probability="0.027"/>
            <destProbReroute id="2" probability="0.027"/>
            <destProbReroute id="-2" probability="0.027"/>
            <destProbReroute id="-3" probability="0.027"/>
            <destProbReroute id="4" probability="0.027"/>
            <destProbReroute id="5" probability="0.027"/>
            <destProbReroute id="6" probability="0.027"/>
            <destProbReroute id="-6" probability="0.027"/>
            <destProbReroute id="7" probability="0.027"/>
            <destProbReroute id="-7" probability="0.027"/>
            <destProbReroute id="-8" probability="0.027"/>
            <destProbReroute id="-9" probability="0.027"/>
            <destProbReroute id="9" probability="0.027"/>
            <destProbReroute id="10" probability="0.027"/>
            <destProbReroute id="-10" probability="0.027"/>
            <destProbReroute id="12" probability="0.027"/>
            <destProbReroute id="-12" probability="0.027"/>
            <destProbReroute id="16" probability="0.027"/>
            <destProbReroute id="-16" probability="0.027"/>
            <destProbReroute id="17" probability="0.027"/>
            <destProbReroute id="-17" probability="0.027"/>
            <destProbReroute id="18" probability="0.027"/>
            <destProbReroute id="-18" probability="0.027"/>
            <destProbReroute id="-19" probability="0.027"/>
            <destProbReroute id="19" probability="0.027"/>
            <destProbReroute id="21" probability="0.027"/>
            <destProbReroute id="-21" probability="0.027"/>
            <destProbReroute id="22" probability="0.027"/>
            <destProbReroute id="-22" probability="0.027"/>
            <destProbReroute id="23" probability="0.027"/>
            <destProbReroute id="-23" probability="0.027"/>
            <destProbReroute id="24" probability="0.027"/>
            <destProbReroute id="-24" probability="0.027"/>
            <destProbReroute id="25" probability="0.027"/>
            <destProbReroute id="-25" probability="0.028"/>
        </interval>
    </rerouter>
    <rerouter edges="4" id="rr_7" pos="0.0">
        <interval begin="0.0" end="3600.00">
            <destProbReroute id="0" probability="0.027"/>
            <destProbReroute id="1" probability="0.027"/>
            <destProbReroute id="-1" probability="0.027"/>
            <destProbReroute id="2" probability="0.027"/>
            <destProbReroute id="-2" probability="0.027"/>
            <destProbReroute id="-3" probability="0.027"/>
            <destProbReroute id="-4" probability="0.027"/>
            <destProbReroute id="5" probability="0.027"/>
            <destProbReroute id="6" probability="0.027"/>
            <destProbReroute id="-6" probability="0.027"/>
            <destProbReroute id="7" probability="0.027"/>
            <destProbReroute id="-7" probability="0.027"/>
            <destProbReroute id="-8" probability="0.027"/>
            <destProbReroute id="-9" probability="0.027"/>
            <destProbReroute id="9" probability="0.027"/>
            <destProbReroute id="10" probability="0.027"/>
            <destProbReroute id="-10" probability="0.027"/>
            <destProbReroute id="12" probability="0.027"/>
            <destProbReroute id="-12" probability="0.027"/>
            <destProbReroute id="16" probability="0.027"/>
            <destProbReroute id="-16" probability="0.027"/>
            <destProbReroute id="17" probability="0.027"/>
            <destProbReroute id="-17" probability="0.027"/>
            <destProbReroute id="18" probability="0.027"/>
            <destProbReroute id="-18" probability="0.027"/>
            <destProbReroute id="-19" probability="0.027"/>
            <destProbReroute id="19" probability="0.027"/>
            <destProbReroute id="21" probability="0.027"/>
            <destProbReroute id="-21" probability="0.027"/>
            <destProbReroute id="22" probability="0.027"/>
            <destProbReroute id="-22" probability="0.027"/>
            <destProbReroute id="23" probability="0.027"/>
            <destProbReroute id="-23" probability="0.027"/>
            <destProbReroute id="24" probability="0.027"/>
            <destProbReroute id="-24" probability="0.027"/>
            <destProbReroute id="25" probability="0.027"/>
            <destProbReroute id="-25" probability="0.028"/>
        </interval>
    </rerouter>
    <rerouter edges="5" id="rr_8" pos="0.0">
        <interval begin="0.0" end="3600.00">
            <destProbReroute id="0" probability="0.027"/>
            <destProbReroute id="1" probability="0.027"/>
            <destProbReroute id="-1" probability="0.027"/>
            <destProbReroute id="2" probability="0.027"/>
            <destProbReroute id="-2" probability="0.027"/>
            <destProbReroute id="-3" probability="0.027"/>
            <destProbReroute id="-4" probability="0.027"/>
            <destProbReroute id="4" probability="0.027"/>
            <destProbReroute id="6" probability="0.027"/>
            <destProbReroute id="-6" probability="0.027"/>
            <destProbReroute id="7" probability="0.027"/>
            <destProbReroute id="-7" probability="0.027"/>
            <destProbReroute id="-8" probability="0.027"/>
            <destProbReroute id="-9" probability="0.027"/>
            <destProbReroute id="9" probability="0.027"/>
            <destProbReroute id="10" probability="0.027"/>
            <destProbReroute id="-10" probability="0.027"/>
            <destProbReroute id="12" probability="0.027"/>
            <destProbReroute id="-12" probability="0.027"/>
            <destProbReroute id="16" probability="0.027"/>
            <destProbReroute id="-16" probability="0.027"/>
            <destProbReroute id="17" probability="0.027"/>
            <destProbReroute id="-17" probability="0.027"/>
            <destProbReroute id="18" probability="0.027"/>
            <destProbReroute id="-18" probability="0.027"/>
            <destProbReroute id="-19" probability="0.027"/>
            <destProbReroute id="19" probability="0.027"/>
            <destProbReroute id="21" probability="0.027"/>
            <destProbReroute id="-21" probability="0.027"/>
            <destProbReroute id="22" probability="0.027"/>
            <destProbReroute id="-22" probability="0.027"/>
            <destProbReroute id="23" probability="0.027"/>
            <destProbReroute id="-23" probability="0.027"/>
            <destProbReroute id="24" probability="0.027"/>
            <destProbReroute id="-24" probability="0.027"/>
            <destProbReroute id="25" probability="0.027"/>
            <destProbReroute id="-25" probability="0.028"/>
        </interval>
    </rerouter>
    <rerouter edges="6" id="rr_9" pos="0.0">
        <interval begin="0.0" end="3600.00">
            <destProbReroute id="0" probability="0.027"/>
            <destProbReroute id="1" probability="0.027"/>
            <destProbReroute id="-1" probability="0.027"/>
            <destProbReroute id="2" probability="0.027"/>
            <destProbReroute id="-2" probability="0.027"/>
            <destProbReroute id="-3" probability="0.027"/>
            <destProbReroute id="-4" probability="0.027"/>
            <destProbReroute id="4" probability="0.027"/>
            <destProbReroute id="5" probability="0.027"/>
            <destProbReroute id="-6" probability="0.027"/>
            <destProbReroute id="7" probability="0.027"/>
            <destProbReroute id="-7" probability="0.027"/>
            <destProbReroute id="-8" probability="0.027"/>
            <destProbReroute id="-9" probability="0.027"/>
            <destProbReroute id="9" probability="0.027"/>
            <destProbReroute id="10" probability="0.027"/>
            <destProbReroute id="-10" probability="0.027"/>
            <destProbReroute id="12" probability="0.027"/>
            <destProbReroute id="-12" probability="0.027"/>
            <destProbReroute id="16" probability="0.027"/>
            <destProbReroute id="-16" probability="0.027"/>
            <destProbReroute id="17" probability="0.027"/>
            <destProbReroute id="-17" probability="0.027"/>
            <destProbReroute id="18" probability="0.027"/>
            <destProbReroute id="-18" probability="0.027"/>
            <destProbReroute id="-19" probability="0.027"/>
            <destProbReroute id="19" probability="0.027"/>
            <destProbReroute id="21" probability="0.027"/>
            <destProbReroute id="-21" probability="0.027"/>
            <destProbReroute id="22" probability="0.027"/>
            <destProbReroute id="-22" probability="0.027"/>
            <destProbReroute id="23" probability="0.027"/>
            <destProbReroute id="-23" probability="0.027"/>
            <destProbReroute id="24" probability="0.027"/>
            <destProbReroute id="-24" probability="0.027"/>
            <destProbReroute id="25" probability="0.027"/>
            <destProbReroute id="-25" probability="0.028"/>
        </interval>
    </rerouter>
    <rerouter edges="-6" id="rr_10" pos="0.0">
        <interval begin="0.0" end="3600.00">
            <destProbReroute id="0" probability="0.027"/>
            <destProbReroute id="1" probability="0.027"/>
            <destProbReroute id="-1" probability="0.027"/>
            <destProbReroute id="2" probability="0.027"/>
            <destProbReroute id="-2" probability="0.027"/>
            <destProbReroute id="-3" probability="0.027"/>
            <destProbReroute id="-4" probability="0.027"/>
            <destProbReroute id="4" probability="0.027"/>
            <destProbReroute id="5" probability="0.027"/>
            <destProbReroute id="6" probability="0.027"/>
            <destProbReroute id="7" probability="0.027"/>
            <destProbReroute id="-7" probability="0.027"/>
            <destProbReroute id="-8" probability="0.027"/>
            <destProbReroute id="-9" probability="0.027"/>
            <destProbReroute id="9" probability="0.027"/>
            <destProbReroute id="10" probability="0.027"/>
            <destProbReroute id="-10" probability="0.027"/>
            <destProbReroute id="12" probability="0.027"/>
            <destProbReroute id="-12" probability="0.027"/>
            <destProbReroute id="16" probability="0.027"/>
            <destProbReroute id="-16" probability="0.027"/>
            <destProbReroute id="17" probability="0.027"/>
            <destProbReroute id="-17" probability="0.027"/>
            <destProbReroute id="18" probability="0.027"/>
            <destProbReroute id="-18" probability="0.027"/>
            <destProbReroute id="-19" probability="0.027"/>
            <destProbReroute id="19" probability="0.027"/>
            <destProbReroute id="21" probability="0.027"/>
            <destProbReroute id="-21" probability="0.027"/>
            <destProbReroute id="22" probability="0.027"/>
            <destProbReroute id="-22" probability="0.027"/>
            <destProbReroute id="23" probability="0.027"/>
            <destProbReroute id="-23" probability="0.027"/>
            <destProbReroute id="24" probability="0.027"/>
            <destProbReroute id="-24" probability="0.027"/>
            <destProbReroute id="25" probability="0.027"/>
            <destProbReroute id="-25" probability="0.028"/>
        </interval>
    </rerouter>
    <rerouter edges="7" id="rr_11" pos="0.0">
        <interval begin="0.0" end="3600.00">
            <destProbReroute id="0" probability="0.027"/>
            <destProbReroute id="1" probability="0.027"/>
            <destProbReroute id="-1" probability="0.027"/>
            <destProbReroute id="2" probability="0.027"/>
            <destProbReroute id="-2" probability="0.027"/>
            <destProbReroute id="-3" probability="0.027"/>
            <destProbReroute id="-4" probability="0.027"/>
            <destProbReroute id="4" probability="0.027"/>
            <destProbReroute id="5" probability="0.027"/>
            <destProbReroute id="6" probability="0.027"/>
            <destProbReroute id="-6" probability="0.027"/>
            <destProbReroute id="-7" probability="0.027"/>
            <destProbReroute id="-8" probability="0.027"/>
            <destProbReroute id="-9" probability="0.027"/>
            <destProbReroute id="9" probability="0.027"/>
            <destProbReroute id="10" probability="0.027"/>
            <destProbReroute id="-10" probability="0.027"/>
            <destProbReroute id="12" probability="0.027"/>
            <destProbReroute id="-12" probability="0.027"/>
            <destProbReroute id="16" probability="0.027"/>
            <destProbReroute id="-16" probability="0.027"/>
            <destProbReroute id="17" probability="0.027"/>
            <destProbReroute id="-17" probability="0.027"/>
            <destProbReroute id="18" probability="0.027"/>
            <destProbReroute id="-18" probability="0.027"/>
            <destProbReroute id="-19" probability="0.027"/>
            <destProbReroute id="19" probability="0.027"/>
            <destProbReroute id="21" probability="0.027"/>
            <destProbReroute id="-21" probability="0.027"/>
            <destProbReroute id="22" probability="0.027"/>
            <destProbReroute id="-22" probability="0.027"/>
            <destProbReroute id="23" probability="0.027"/>
            <destProbReroute id="-23" probability="0.027"/>
            <destProbReroute id="24" probability="0.027"/>
            <destProbReroute id="-24" probability="0.027"/>
            <destProbReroute id="25" probability="0.027"/>
            <destProbReroute id="-25" probability="0.028"/>
        </interval>
    </rerouter>
    <rerouter edges="-7" id="rr_12" pos="0.0">
        <interval begin="0.0" end="3600.00">
            <destProbReroute id="0" probability="0.027"/>
            <destProbReroute id="1" probability="0.027"/>
            <destProbReroute id="-1" probability="0.027"/>
            <destProbReroute id="2" probability="0.027"/>
            <destProbReroute id="-2" probability="0.027"/>
            <destProbReroute id="-3" probability="0.027"/>
            <destProbReroute id="-4" probability="0.027"/>
            <destProbReroute id="4" probability="0.027"/>
            <destProbReroute id="5" probability="0.027"/>
            <destProbReroute id="6" probability="0.027"/>
            <destProbReroute id="-6" probability="0.027"/>
            <destProbReroute id="7" probability="0.027"/>
            <destProbReroute id="-8" probability="0.027"/>
            <destProbReroute id="-9" probability="0.027"/>
            <destProbReroute id="9" probability="0.027"/>
            <destProbReroute id="10" probability="0.027"/>
            <destProbReroute id="-10" probability="0.027"/>
            <destProbReroute id="12" probability="0.027"/>
            <destProbReroute id="-12" probability="0.027"/>
            <destProbReroute id="16" probability="0.027"/>
            <destProbReroute id="-16" probability="0.027"/>
            <destProbReroute id="17" probability="0.027"/>
            <destProbReroute id="-17" probability="0.027"/>
            <destProbReroute id="18" probability="0.027"/>
            <destProbReroute id="-18" probability="0.027"/>
            <destProbReroute id="-19" probability="0.027"/>
            <destProbReroute id="19" probability="0.027"/>
            <destProbReroute id="21" probability="0.027"/>
            <destProbReroute id="-21" probability="0.027"/>
            <destProbReroute id="22" probability="0.027"/>
            <destProbReroute id="-22" probability="0.027"/>
            <destProbReroute id="23" probability="0.027"/>
            <destProbReroute id="-23" probability="0.027"/>
            <destProbReroute id="24" probability="0.027"/>
            <destProbReroute id="-24" probability="0.027"/>