<?xml version="1.0" ?>
<additional>
    <rerouter id="rr_0" edges="-0" pos="0.0">
        <interval begin="0.0" end="3600.00">
            <destProbReroute id="0" probability="0.0147"/>
            <destProbReroute id="-1" probability="0.0147"/>
            <destProbReroute id="1" probability="0.0147"/>
            <destProbReroute id="-2" probability="0.0147"/>
            <destProbReroute id="2" probability="0.0147"/>
            <destProbReroute id="-3" probability="0.0147"/>
            <destProbReroute id="3" probability="0.0147"/>
            <destProbReroute id="-4" probability="0.0147"/>
            <destProbReroute id="4" probability="0.0147"/>
            <destProbReroute id="-77" probability="0.0147"/>
            <destProbReroute id="77" probability="0.0147"/>
            <destProbReroute id="-78" probability="0.0147"/>
            <destProbReroute id="78" probability="0.0147"/>
            <destProbReroute id="-76" probability="0.0147"/>
            <destProbReroute id="76" probability="0.0147"/>
            <destProbReroute id="-75" probability="0.0147"/>
            <destProbReroute id="75" probability="0.0147"/>
            <destProbReroute id="-74" probability="0.0147"/>
            <destProbReroute id="74" probability="0.0147"/>
            <destProbReroute id="-87" probability="0.0147"/>
            <destProbReroute id="87" probability="0.0147"/>
            <destProbReroute id="-19" probability="0.0147"/>
            <destProbReroute id="19" probability="0.0147"/>
            <destProbReroute id="-20" probability="0.0147"/>
            <destProbReroute id="20" probability="0.0147"/>
            <destProbReroute id="-21" probability="0.0147"/>
            <destProbReroute id="21" probability="0.0147"/>
            <destProbReroute id="-22" probability="0.0147"/>
            <destProbReroute id="22" probability="0.0147"/>
            <destProbReroute id="-52" probability="0.0147"/>
            <destProbReroute id="-23" probability="0.0147"/>
            <destProbReroute id="23" probability="0.0147"/>
            <destProbReroute id="-25" probability="0.0147"/>
            <destProbReroute id="25" probability="0.0147"/>
            <destProbReroute id="-90" probability="0.0147"/>
            <destProbReroute id="90" probability="0.0147"/>
            <destProbReroute id="-57" probability="0.0147"/>
            <destProbReroute id="57" probability="0.0147"/>
            <destProbReroute id="-92" probability="0.0147"/>
            <destProbReroute id="-56" probability="0.0147"/>
            <destProbReroute id="56" probability="0.0147"/>
            <destProbReroute id="-5" probability="0.0147"/>
            <destProbReroute id="6" probability="0.0147"/>
            <destProbReroute id="-7" probability="0.0147"/>
            <destProbReroute id="7" probability="0.0147"/>
            <destProbReroute id="-8" probability="0.0147"/>
            <destProbReroute id="8" probability="0.0147"/>
            <destProbReroute id="-68" probability="0.0147"/>
            <destProbReroute id="68" probability="0.0147"/>
            <destProbReroute id="-65" probability="0.0147"/>
            <destProbReroute id="-87" probability="0.0147"/>
            <destProbReroute id="87" probability="0.0147"/>
            <destProbReroute id="-88" probability="0.0147"/>
            <destProbReroute id="88" probability="0.0147"/>
            <destProbReroute id="-89" probability="0.0147"/>
            <destProbReroute id="89" probability="0.0147"/>
            <destProbReroute id="-49" probability="0.0147"/>
            <destProbReroute id="49" probability="0.0147"/>
            <destProbReroute id="-50" probability="0.0147"/>
            <destProbReroute id="50" probability="0.0147"/>
            <destProbReroute id="-51" probability="0.0147"/>
            <destProbReroute id="51" probability="0.0147"/>
            <destProbReroute id="-31" probability="0.0147"/>
            <destProbReroute id="31" probability="0.0147"/>
            <destProbReroute id="-32" probability="0.0147"/>
            <destProbReroute id="32" probability="0.0147"/>
            <destProbReroute id="-34" probability="0.0147"/>
            <destProbReroute id="34" probability="0.0151"/>
        </interval>
    </rerouter>
    <rerouter id="rr_1" edges="0" pos="0.0">
        <interval begin="0.0" end="3600.00">
            <destProbReroute id="-0" probability="0.0147"/>
            <destProbReroute id="-1" probability="0.0147"/>
            <destProbReroute id="1" probability="0.0147"/>
            <destProbReroute id="-2" probability="0.0147"/>
            <destProbReroute id="2" probability="0.0147"/>
            <destProbReroute id="-3" probability="0.0147"/>
            <destProbReroute id="3" probability="0.0147"/>
            <destProbReroute id="-4" probability="0.0147"/>
            <destProbReroute id="4" probability="0.0147"/>
            <destProbReroute id="-77" probability="0.0147"/>
            <destProbReroute id="77" probability="0.0147"/>
            <destProbReroute id="-78" probability="0.0147"/>
            <destProbReroute id="78" probability="0.0147"/>
            <destProbReroute id="-76" probability="0.0147"/>
            <destProbReroute id="76" probability="0.0147"/>
            <destProbReroute id="-75" probability="0.0147"/>
            <destProbReroute id="75" probability="0.0147"/>
            <destProbReroute id="-74" probability="0.0147"/>
            <destProbReroute id="74" probability="0.0147"/>
            <destProbReroute id="-87" probability="0.0147"/>
            <destProbReroute id="87" probability="0.0147"/>
            <destProbReroute id="-19" probability="0.0147"/>
            <destProbReroute id="19" probability="0.0147"/>
            <destProbReroute id="-20" probability="0.0147"/>
            <destProbReroute id="20" probability="0.0147"/>
            <destProbReroute id="-21" probability="0.0147"/>
            <destProbReroute id="21" probability="0.0147"/>
            <destProbReroute id="-22" probability="0.0147"/>
            <destProbReroute id="22" probability="0.0147"/>
            <destProbReroute id="-52" probability="0.0147"/>
            <destProbReroute id="-23" probability="0.0147"/>
            <destProbReroute id="23" probability="0.0147"/>
            <destProbReroute id="-25" probability="0.0147"/>
            <destProbReroute id="25" probability="0.0147"/>
            <destProbReroute id="-90" probability="0.0147"/>
            <destProbReroute id="90" probability="0.0147"/>
            <destProbReroute id="-57" probability="0.0147"/>
            <destProbReroute id="57" probability="0.0147"/>
            <destProbReroute id="-92" probability="0.0147"/>
            <destProbReroute id="-56" probability="0.0147"/>
            <destProbReroute id="56" probability="0.0147"/>
            <destProbReroute id="-5" probability="0.0147"/>
            <destProbReroute id="6" probability="0.0147"/>
            <destProbReroute id="-7" probability="0.0147"/>
            <destProbReroute id="7" probability="0.0147"/>
            <destProbReroute id="-8" probability="0.0147"/>
            <destProbReroute id="8" probability="0.0147"/>
            <destProbReroute id="-68" probability="0.0147"/>
            <destProbReroute id="68" probability="0.0147"/>
            <destProbReroute id="-65" probability="0.0147"/>
            <destProbReroute id="-87" probability="0.0147"/>
            <destProbReroute id="87" probability="0.0147"/>
            <destProbReroute id="-88" probability="0.0147"/>
            <destProbReroute id="88" probability="0.0147"/>
            <destProbReroute id="-89" probability="0.0147"/>
            <destProbReroute id="89" probability="0.0147"/>
            <destProbReroute id="-49" probability="0.0147"/>
            <destProbReroute id="49" probability="0.0147"/>
            <destProbReroute id="-50" probability="0.0147"/>
            <destProbReroute id="50" probability="0.0147"/>
            <destProbReroute id="-51" probability="0.0147"/>
            <destProbReroute id="51" probability="0.0147"/>
            <destProbReroute id="-31" probability="0.0147"/>
            <destProbReroute id="31" probability="0.0147"/>
            <destProbReroute id="-32" probability="0.0147"/>
            <destProbReroute id="32" probability="0.0147"/>
            <destProbReroute id="-34" probability="0.0147"/>
            <destProbReroute id="34" probability="0.0151"/>
        </interval>
    </rerouter>
    <rerouter id="rr_2" edges="-1" pos="0.0">
        <interval begin="0.0" end="3600.00">
            <destProbReroute id="-0" probability="0.0147"/>
            <destProbReroute id="0" probability="0.0147"/>
            <destProbReroute id="1" probability="0.0147"/>
            <destProbReroute id="-2" probability="0.0147"/>
            <destProbReroute id="2" probability="0.0147"/>
            <destProbReroute id="-3" probability="0.0147"/>
            <destProbReroute id="3" probability="0.0147"/>
            <destProbReroute id="-4" probability="0.0147"/>
            <destProbReroute id="4" probability="0.0147"/>
            <destProbReroute id="-77" probability="0.0147"/>
            <destProbReroute id="77" probability="0.0147"/>
            <destProbReroute id="-78" probability="0.0147"/>
            <destProbReroute id="78" probability="0.0147"/>
            <destProbReroute id="-76" probability="0.0147"/>
            <destProbReroute id="76" probability="0.0147"/>
            <destProbReroute id="-75" probability="0.0147"/>
            <destProbReroute id="75" probability="0.0147"/>
            <destProbReroute id="-74" probability="0.0147"/>
            <destProbReroute id="74" probability="0.0147"/>
            <destProbReroute id="-87" probability="0.0147"/>
            <destProbReroute id="87" probability="0.0147"/>
            <destProbReroute id="-19" probability="0.0147"/>
            <destProbReroute id="19" probability="0.0147"/>
            <destProbReroute id="-20" probability="0.0147"/>
            <destProbReroute id="20" probability="0.0147"/>
            <destProbReroute id="-21" probability="0.0147"/>
            <destProbReroute id="21" probability="0.0147"/>
            <destProbReroute id="-22" probability="0.0147"/>
            <destProbReroute id="22" probability="0.0147"/>
            <destProbReroute id="-52" probability="0.0147"/>
            <destProbReroute id="-23" probability="0.0147"/>
            <destProbReroute id="23" probability="0.0147"/>
            <destProbReroute id="-25" probability="0.0147"/>
            <destProbReroute id="25" probability="0.0147"/>
            <destProbReroute id="-90" probability="0.0147"/>
            <destProbReroute id="90" probability="0.0147"/>
            <destProbReroute id="-57" probability="0.0147"/>
            <destProbReroute id="57" probability="0.0147"/>
            <destProbReroute id="-92" probability="0.0147"/>
            <destProbReroute id="-56" probability="0.0147"/>
            <destProbReroute id="56" probability="0.0147"/>
            <destProbReroute id="-5" probability="0.0147"/>
            <destProbReroute id="6" probability="0.0147"/>
            <destProbReroute id="-7" probability="0.0147"/>
            <destProbReroute id="7" probability="0.0147"/>
            <destProbReroute id="-8" probability="0.0147"/>
            <destProbReroute id="8" probability="0.0147"/>
            <destProbReroute id="-68" probability="0.0147"/>
            <destProbReroute id="68" probability="0.0147"/>
            <destProbReroute id="-65" probability="0.0147"/>
            <destProbReroute id="-87" probability="0.0147"/>
            <destProbReroute id="87" probability="0.0147"/>
            <destProbReroute id="-88" probability="0.0147"/>
            <destProbReroute id="88" probability="0.0147"/>
            <destProbReroute id="-89" probability="0.0147"/>
            <destProbReroute id="89" probability="0.0147"/>
            <destProbReroute id="-49" probability="0.0147"/>
            <destProbReroute id="49" probability="0.0147"/>
            <destProbReroute id="-50" probability="0.0147"/>
            <destProbReroute id="50" probability="0.0147"/>
            <destProbReroute id="-51" probability="0.0147"/>
            <destProbReroute id="51" probability="0.0147"/>
            <destProbReroute id="-31" probability="0.0147"/>
            <destProbReroute id="31" probability="0.0147"/>
            <destProbReroute id="-32" probability="0.0147"/>
            <destProbReroute id="32" probability="0.0147"/>
            <destProbReroute id="-34" probability="0.0147"/>
            <destProbReroute id="34" probability="0.0151"/>
        </interval>
    </rerouter>
    <rerouter id="rr_3" edges="1" pos="0.0">
        <interval begin="0.0" end="3600.00">
            <destProbReroute id="-0" probability="0.0147"/>
            <destProbReroute id="0" probability="0.0147"/>
            <destProbReroute id="-1" probability="0.0147"/>
            <destProbReroute id="-2" probability="0.0147"/>
            <destProbReroute id="2" probability="0.0147"/>
            <destProbReroute id="-3" probability="0.0147"/>
            <destProbReroute id="3" probability="0.0147"/>
            <destProbReroute id="-4" probability="0.0147"/>
            <destProbReroute id="4" probability="0.0147"/>
            <destProbReroute id="-77" probability="0.0147"/>
            <destProbReroute id="77" probability="0.0147"/>
            <destProbReroute id="-78" probability="0.0147"/>
            <destProbReroute id="78" probability="0.0147"/>
            <destProbReroute id="-76" probability="0.0147"/>
            <destProbReroute id="76" probability="0.0147"/>
            <destProbReroute id="-75" probability="0.0147"/>
            <destProbReroute id="75" probability="0.0147"/>
            <destProbReroute id="-74" probability="0.0147"/>
            <destProbReroute id="74" probability="0.0147"/>
            <destProbReroute id="-87" probability="0.0147"/>
            <destProbReroute id="87" probability="0.0147"/>
            <destProbReroute id="-19" probability="0.0147"/>
            <destProbReroute id="19" probability="0.0147"/>
            <destProbReroute id="-20" probability="0.0147"/>
            <destProbReroute id="20" probability="0.0147"/>
            <destProbReroute id="-21" probability="0.0147"/>
            <destProbReroute id="21" probability="0.0147"/>
            <destProbReroute id="-22" probability="0.0147"/>
            <destProbReroute id="22" probability="0.0147"/>
            <destProbReroute id="-52" probability="0.0147"/>
            <destProbReroute id="-23" probability="0.0147"/>
            <destProbReroute id="23" probability="0.0147"/>
            <destProbReroute id="-25" probability="0.0147"/>
            <destProbReroute id="25" probability="0.0147"/>
            <destProbReroute id="-90" probability="0.0147"/>
            <destProbReroute id="90" probability="0.0147"/>
            <destProbReroute id="-57" probability="0.0147"/>
            <destProbReroute id="57" probability="0.0147"/>
            <destProbReroute id="-92" probability="0.0147"/>
            <destProbReroute id="-56" probability="0.0147"/>
            <destProbReroute id="56" probability="0.0147"/>
            <destProbReroute id="-5" probability="0.0147"/>
            <destProbReroute id="6" probability="0.0147"/>
            <destProbReroute id="-7" probability="0.0147"/>
            <destProbReroute id="7" probability="0.0147"/>
            <destProbReroute id="-8" probability="0.0147"/>
            <destProbReroute id="8" probability="0.0147"/>
            <destProbReroute id="-68" probability="0.0147"/>
            <destProbReroute id="68" probability="0.0147"/>
            <destProbReroute id="-65" probability="0.0147"/>
            <destProbReroute id="-87" probability="0.0147"/>
            <destProbReroute id="87" probability="0.0147"/>
            <destProbReroute id="-88" probability="0.0147"/>
            <destProbReroute id="88" probability="0.0147"/>
            <destProbReroute id="-89" probability="0.0147"/>
            <destProbReroute id="89" probability="0.0147"/>
            <destProbReroute id="-49" probability="0.0147"/>
            <destProbReroute id="49" probability="0.0147"/>
            <destProbReroute id="-50" probability="0.0147"/>
            <destProbReroute id="50" probability="0.0147"/>
            <destProbReroute id="-51" probability="0.0147"/>
            <destProbReroute id="51" probability="0.0147"/>
            <destProbReroute id="-31" probability="0.0147"/>
            <destProbReroute id="31" probability="0.0147"/>
            <destProbReroute id="-32" probability="0.0147"/>
            <destProbReroute id="32" probability="0.0147"/>
            <destProbReroute id="-34" probability="0.0147"/>
            <destProbReroute id="34" probability="0.0151"/>
        </interval>
    </rerouter>
    <rerouter id="rr_4" edges="-2" pos="0.0">
        <interval begin="0.0" end="3600.00">
            <destProbReroute id="-0" probability="0.0147"/>
            <destProbReroute id="0" probability="0.0147"/>
            <destProbReroute id="-1" probability="0.0147"/>
            <destProbReroute id="1" probability="0.0147"/>
            <destProbReroute id="2" probability="0.0147"/>
            <destProbReroute id="-3" probability="0.0147"/>
            <destProbReroute id="3" probability="0.0147"/>
            <destProbReroute id="-4" probability="0.0147"/>
            <destProbReroute id="4" probability="0.0147"/>
            <destProbReroute id="-77" probability="0.0147"/>
            <destProbReroute id="77" probability="0.0147"/>
            <destProbReroute id="-78" probability="0.0147"/>
            <destProbReroute id="78" probability="0.0147"/>
            <destProbReroute id="-76" probability="0.0147"/>
            <destProbReroute id="76" probability="0.0147"/>
            <destProbReroute id="-75" probability="0.0147"/>
            <destProbReroute id="75" probability="0.0147"/>
            <destProbReroute id="-74" probability="0.0147"/>
            <destProbReroute id="74" probability="0.0147"/>
            <destProbReroute id="-87" probability="0.0147"/>
            <destProbReroute id="87" probability="0.0147"/>
            <destProbReroute id="-19" probability="0.0147"/>
            <destProbReroute id="19" probability="0.0147"/>
            <destProbReroute id="-20" probability="0.0147"/>
            <destProbReroute id="20" probability="0.0147"/>
            <destProbReroute id="-21" probability="0.0147"/>
            <destProbReroute id="21" probability="0.0147"/>
            <destProbReroute id="-22" probability="0.0147"/>
            <destProbReroute id="22" probability="0.0147"/>
            <destProbReroute id="-52" probability="0.0147"/>
            <destProbReroute id="-23" probability="0.0147"/>
            <destProbReroute id="23" probability="0.0147"/>
            <destProbReroute id="-25" probability="0.0147"/>
            <destProbReroute id="25" probability="0.0147"/>
            <destProbReroute id="-90" probability="0.0147"/>
            <destProbReroute id="90" probability="0.0147"/>
            <destProbReroute id="-57" probability="0.0147"/>
            <destProbReroute id="57" probability="0.0147"/>
            <destProbReroute id="-92" probability="0.0147"/>
            <destProbReroute id="-56" probability="0.0147"/>
            <destProbReroute id="56" probability="0.0147"/>
            <destProbReroute id="-5" probability="0.0147"/>
            <destProbReroute id="6" probability="0.0147"/>
            <destProbReroute id="-7" probability="0.0147"/>
            <destProbReroute id="7" probability="0.0147"/>
            <destProbReroute id="-8" probability="0.0147"/>
            <destProbReroute id="8" probability="0.0147"/>
            <destProbReroute id="-68" probability="0.0147"/>
            <destProbReroute id="68" probability="0.0147"/>
            <destProbReroute id="-65" probability="0.0147"/>
            <destProbReroute id="-87" probability="0.0147"/>
            <destProbReroute id="87" probability="0.0147"/>
            <destProbReroute id="-88" probability="0.0147"/>
            <destProbReroute id="88" probability="0.0147"/>
            <destProbReroute id="-89" probability="0.0147"/>
            <destProbReroute id="89" probability="0.0147"/>
            <destProbReroute id="-49" probability="0.0147"/>
            <destProbReroute id="49" probability="0.0147"/>
            <destProbReroute id="-50" probability="0.0147"/>
            <destProbReroute id="50" probability="0.0147"/>
            <destProbReroute id="-51" probability="0.0147"/>
            <destProbReroute id="51" probability="0.0147"/>
            <destProbReroute id="-31" probability="0.0147"/>
            <destProbReroute id="31" probability="0.0147"/>
            <destProbReroute id="-32" probability="0.0147"/>
            <destProbReroute id="32" probability="0.0147"/>
            <destProbReroute id="-34" probability="0.0147"/>
            <destProbReroute id="34" probability="0.0151"/>
        </interval>
    </rerouter>
    <rerouter id="rr_5" edges="2" pos="0.0">
        <interval begin="0.0" end="3600.00">
            <destProbReroute id="-0" probability="0.0147"/>
            <destProbReroute id="0" probability="0.0147"/>
            <destProbReroute id="-1" probability="0.0147"/>
            <destProbReroute id="1" probability="0.0147"/>
            <destProbReroute id="-2" probability="0.0147"/>
            <destProbReroute id="-3" probability="0.0147"/>
            <destProbReroute id="3" probability="0.0147"/>
            <destProbReroute id="-4" probability="0.0147"/>
            <destProbReroute id="4" probability="0.0147"/>
            <destProbReroute id="-77" probability="0.0147"/>
            <destProbReroute id="77" probability="0.0147"/>
            <destProbReroute id="-78" probability="0.0147"/>
            <destProbReroute id="78" probability="0.0147"/>
            <destProbReroute id="-76" probability="0.0147"/>
            <destProbReroute id="76" probability="0.0147"/>
            <destProbReroute id="-75" probability="0.0147"/>
            <destProbReroute id="75" probability="0.0147"/>
            <destProbReroute id="-74" probability="0.0147"/>
            <destProbReroute id="74" probability="0.0147"/>
            <destProbReroute id="-87" probability="0.0147"/>
            <destProbReroute id="87" probability="0.0147"/>
            <destProbReroute id="-19" probability="0.0147"/>
            <destProbReroute id="19" probability="0.0147"/>
            <destProbReroute id="-20" probability="0.0147"/>
            <destProbReroute id="20" probability="0.0147"/>
            <destProbReroute id="-21" probability="0.0147"/>
            <destProbReroute id="21" probability="0.0147"/>
            <destProbReroute id="-22" probability="0.0147"/>
            <destProbReroute id="22" probability="0.0147"/>
            <destProbReroute id="-52" probability="0.0147"/>
            <destProbReroute id="-23" probability="0.0147"/>
            <destProbReroute id="23" probability="0.0147"/>
            <destProbReroute id="-25" probability="0.0147"/>
            <destProbReroute id="25" probability="0.0147"/>
            <destProbReroute id="-90" probability="0.0147"/>
            <destProbReroute id="90" probability="0.0147"/>
            <destProbReroute id="-57" probability="0.0147"/>
            <destProbReroute id="57" probability="0.0147"/>
            <destProbReroute id="-92" probability="0.0147"/>
            <destProbReroute id="-56" probability="0.0147"/>
            <destProbReroute id="56" probability="0.0147"/>
            <destProbReroute id="-5" probability="0.0147"/>
            <destProbReroute id="6" probability="0.0147"/>
            <destProbReroute id="-7" probability="0.0147"/>
            <destProbReroute id="7" probability="0.0147"/>
            <destProbReroute id="-8" probability="0.0147"/>
            <destProbReroute id="8" probability="0.0147"/>
            <destProbReroute id="-68" probability="0.0147"/>
            <destProbReroute id="68" probability="0.0147"/>
            <destProbReroute id="-65" probability="0.0147"/>
            <destProbReroute id="-87" probability="0.0147"/>
            <destProbReroute id="87" probability="0.0147"/>
            <destProbReroute id="-88" probability="0.0147"/>
            <destProbReroute id="88" probability="0.0147"/>
            <destProbReroute id="-89" probability="0.0147"/>
            <destProbReroute id="89" probability="0.0147"/>
            <destProbReroute id="-49" probability="0.0147"/>
            <destProbReroute id="49" probability="0.0147"/>
            <destProbReroute id="-50" probability="0.0147"/>
            <destProbReroute id="50" probability="0.0147"/>
            <destProbReroute id="-51" probability="0.0147"/>
            <destProbReroute id="51" probability="0.0147"/>
            <destProbReroute id="-31" probability="0.0147"/>
            <destProbReroute id="31" probability="0.0147"/>
            <destProbReroute id="-32" probability="0.0147"/>
            <destProbReroute id="32" probability="0.0147"/>
            <destProbReroute id="-34" probability="0.0147"/>
            <destProbReroute id="34" probability="0.0151"/>
        </interval>
    </rerouter>
    <rerouter id="rr_6" edges="-3" pos="0.0">
        <interval begin="0.0" end="3600.00">
            <destProbReroute id="-0" probability="0.0147"/>
            <destProbReroute id="0" probability="0.0147"/>
            <destProbReroute id="-1" probability="0.0147"/>
            <destProbReroute id="1" probability="0.0147"/>
            <destProbReroute id="-2" probability="0.0147"/>
            <destProbReroute id="2" probability="0.0147"/>
            <destProbReroute id="3" probability="0.0147"/>
            <destProbReroute id="-4" probability="0.0147"/>
            <destProbReroute id="4" probability="0.0147"/>
            <destProbReroute id="-77" probability="0.0147"/>
            <destProbReroute id="77" probability="0.0147"/>
            <destProbReroute id="-78" probability="0.0147"/>
            <destProbReroute id="78" probability="0.0147"/>
            <destProbReroute id="-76" probability="0.0147"/>
            <destProbReroute id="76" probability="0.0147"/>
            <destProbReroute id="-75" probability="0.0147"/>
            <destProbReroute id="75" probability="0.0147"/>
            <destProbReroute id="-74" probability="0.0147"/>
            <destProbReroute id="74" probability="0.0147"/>
            <destProbReroute id="-87" probability="0.0147"/>
            <destProbReroute id="87" probability="0.0147"/>
            <destProbReroute id="-19" probability="0.0147"/>
            <destProbReroute id="19" probability="0.0147"/>
            <destProbReroute id="-20" probability="0.0147"/>
            <destProbReroute id="20" probability="0.0147"/>
            <destProbReroute id="-21" probability="0.0147"/>
            <destProbReroute id="21" probability="0.0147"/>
            <destProbReroute id="-22" probability="0.0147"/>
            <destProbReroute id="22" probability="0.0147"/>
            <destProbReroute id="-52" probability="0.0147"/>
            <destProbReroute id="-23" probability="0.0147"/>
            <destProbReroute id="23" probability="0.0147"/>
            <destProbReroute id="-25" probability="0.0147"/>
            <destProbReroute id="25" probability="0.0147"/>
            <destProbReroute id="-90" probability="0.0147"/>
            <destProbReroute id="90" probability="0.0147"/>
            <destProbReroute id="-57" probability="0.0147"/>
            <destProbReroute id="57" probability="0.0147"/>
            <destProbReroute id="-92" probability="0.0147"/>
            <destProbReroute id="-56" probability="0.0147"/>
            <destProbReroute id="56" probability="0.0147"/>
            <destProbReroute id="-5" probability="0.0147"/>
            <destProbReroute id="6" probability="0.0147"/>
            <destProbReroute id="-7" probability="0.0147"/>
            <destProbReroute id="7" probability="0.0147"/>
            <destProbReroute id="-8" probability="0.0147"/>
            <destProbReroute id="8" probability="0.0147"/>
            <destProbReroute id="-68" probability="0.0147"/>
            <destProbReroute id="68" probability="0.0147"/>
            <destProbReroute id="-65" probability="0.0147"/>
            <destProbReroute id="-87" probability="0.0147"/>
            <destProbReroute id="87" probability="0.0147"/>
            <destProbReroute id="-88" probability="0.0147"/>
            <destProbReroute id="88" probability="0.0147"/>
            <destProbReroute id="-89" probability="0.0147"/>
            <destProbReroute id="89" probability="0.0147"/>
            <destProbReroute id="-49" probability="0.0147"/>
            <destProbReroute id="49" probability="0.0147"/>
            <destProbReroute id="-50" probability="0.0147"/>
            <destProbReroute id="50" probability="0.0147"/>
            <destProbReroute id="-51" probability="0.0147"/>
            <destProbReroute id="51" probability="0.0147"/>
            <destProbReroute id="-31" probability="0.0147"/>
            <destProbReroute id="31" probability="0.0147"/>
            <destProbReroute id="-32" probability="0.0147"/>
            <destProbReroute id="32" probability="0.0147"/>
            <destProbReroute id="-34" probability="0.0147"/>
            <destProbReroute id="34" probability="0.0151"/>
        </interval>
    </rerouter>
    <rerouter id="rr_7" edges="3" pos="0.0">
        <interval begin="0.0" end="3600.00">
            <destProbReroute id="-0" probability="0.0147"/>
            <destProbReroute id="0" probability="0.0147"/>
            <destProbReroute id="-1" probability="0.0147"/>
            <destProbReroute id="1" probability="0.0147"/>