<?xml version="1.0" encoding="UTF-8"?>

<!-- generated on 2023-07-29 23:39:21 by Eclipse SUMO netedit Version 1.14.1
<configuration xmlns:xsi="http://www.w3.org/2001/XMLSchema-instance" xsi:noNamespaceSchemaLocation="http://sumo.dlr.de/xsd/netconvertConfiguration.xsd">

    <input>
        <sumo-net-file value="C:\Users\phill\Documents\URAP%20-%20CARLA\Sumo%20Data%20Collection\net\G16.net.xml"/>
    </input>

    <output>
        <output-file value="C:\Users\phill\Documents\URAP%20-%20CARLA\Sumo%20Data%20Collection\net\G16_longTLCycle.net.xml"/>
    </output>

    <processing>
        <geometry.min-radius.fix.railways value="false"/>
        <geometry.max-grade.fix value="false"/>
        <offset.disable-normalization value="true"/>
        <lefthand value="false"/>
    </processing>

    <junctions>
        <no-turnarounds value="true"/>
        <junctions.corner-detail value="5"/>
        <junctions.limit-turn-speed value="5.5"/>
        <rectangular-lane-cut value="true"/>
    </junctions>

    <pedestrian>
        <walkingareas value="false"/>
    </pedestrian>

</configuration>
-->

<net version="1.9" junctionCornerDetail="5" rectangularLaneCut="true" limitTurnSpeed="5.50" xmlns:xsi="http://www.w3.org/2001/XMLSchema-instance" xsi:noNamespaceSchemaLocation="http://sumo.dlr.de/xsd/net_file.xsd">

    <location netOffset="437.34,287.72" convBoundary="0.00,0.00,731.44,483.97" origBoundary="0.000000,0.000000,0.000000,0.000000" projParameter="+proj=tmerc +lat_0=38.0149482 +lon_0=-122.0108472 +k=1 +x_0=0 +y_0=0 +datum=WGS84 +units=m  +vunits=m +no_defs "/>

    <type id="bidirectional" priority="1" speed="1.39" disallow="pedestrian tram rail_urban rail rail_electric rail_fast ship" width="3.65"/>
    <type id="biking" priority="-1" speed="5.56" allow="bicycle" width="1.50"/>
    <type id="border" priority="0" speed="1.39" disallow="all" discard="1" width="0.10"/>
    <type id="driving" priority="1" speed="13.89" disallow="pedestrian tram rail_urban rail rail_electric rail_fast ship" width="3.65"/>
    <type id="entry" priority="1" speed="22.22" disallow="pedestrian tram rail_urban rail rail_electric rail_fast ship" width="3.65"/>
    <type id="exit" priority="1" speed="22.22" disallow="pedestrian tram rail_urban rail rail_electric rail_fast ship" width="3.65"/>
    <type id="median" priority="0" speed="1.39" disallow="all" discard="1" width="0.10"/>
    <type id="mwyEntry" priority="1" speed="22.22" allow="private emergency authority army vip passenger hov taxi bus coach delivery truck trailer motorcycle evehicle custom1 custom2" width="3.65"/>
    <type id="mwyExit" priority="1" speed="22.22" allow="private emergency authority army vip passenger hov taxi bus coach delivery truck trailer motorcycle evehicle custom1 custom2" width="3.65"/>
    <type id="none" priority="0" speed="1.39" disallow="all" discard="1" width="1.00"/>
    <type id="offRamp" priority="1" speed="22.22" allow="private emergency authority army vip passenger hov taxi bus coach delivery truck trailer motorcycle evehicle custom1 custom2" width="3.65"/>
    <type id="onRamp" priority="1" speed="22.22" allow="private emergency authority army vip passenger hov taxi bus coach delivery truck trailer motorcycle evehicle custom1 custom2" width="3.65"/>
    <type id="parking" priority="1" speed="1.39" disallow="pedestrian tram rail_urban rail rail_electric rail_fast ship" width="2.50"/>
    <type id="rail" priority="3" speed="33.33" allow="rail_urban rail rail_electric rail_fast" width="3.65"/>
    <type id="restricted" priority="0" speed="13.89" disallow="all" width="3.65"/>
    <type id="roadWorks" priority="0" speed="1.39" allow="authority" width="3.65"/>
    <type id="shoulder" priority="0" speed="1.39" disallow="all" discard="1" width="1.00"/>
    <type id="sidewalk" priority="-2" speed="2.78" allow="pedestrian" width="2.50"/>
    <type id="special1" priority="1" speed="22.22" allow="custom1" discard="1" width="3.65"/>
    <type id="special2" priority="1" speed="22.22" allow="custom2" discard="1" width="3.65"/>
    <type id="special3" priority="1" speed="22.22" allow="custom1 custom2" discard="1" width="3.65"/>
    <type id="stop" priority="1" speed="13.89" disallow="pedestrian tram rail_urban rail rail_electric rail_fast ship" width="3.65"/>
    <type id="tram" priority="2" speed="13.89" allow="tram" width="3.65"/>

    <edge id=":15.12_0" function="internal">
        <lane id=":15.12_0_0" index="0" disallow="pedestrian tram rail_urban rail rail_electric rail_fast ship" speed="17.88" length="2.97" width="3.50" shape="17.95,367.38,15.40 15.33,368.79,15.40"/>
        <lane id=":15.12_0_1" index="1" disallow="pedestrian tram rail_urban rail rail_electric rail_fast ship" speed="17.88" length="2.97" width="3.50" shape="16.28,364.30,15.40 13.67,365.70,15.40"/>
    </edge>
    <edge id=":26_0" function="internal">
        <lane id=":26_0_0" index="0" disallow="pedestrian tram rail_urban rail rail_electric rail_fast ship" speed="6.57" length="9.28" width="3.50" shape="589.11,234.33,26.13 587.65,232.24,26.07 585.88,231.14,26.02 583.79,231.02,25.97 581.40,231.89,25.91">
            <param key="origId" value="31_1"/>
        </lane>
    </edge>
    <edge id=":26_1" function="internal">
        <lane id=":26_1_0" index="0" disallow="pedestrian tram rail_urban rail rail_electric rail_fast ship" speed="17.88" length="15.44" width="3.50" shape="589.11,234.33,26.13 582.67,220.15,25.74">
            <param key="origId" value="33_2"/>
        </lane>
        <lane id=":26_1_1" index="1" disallow="pedestrian tram rail_urban rail rail_electric rail_fast ship" speed="17.88" length="15.44" width="3.50" shape="592.24,232.75,26.13 585.91,218.82,25.74">
            <param key="origId" value="33_1"/>
        </lane>
    </edge>
    <edge id=":26_3" function="internal">
        <lane id=":26_3_0" index="0" disallow="pedestrian tram rail_urban rail rail_electric rail_fast ship" speed="17.88" length="15.60" width="3.50" shape="595.16,224.54,26.05 581.40,231.89,25.91">
            <param key="origId" value="27_2"/>
        </lane>
        <lane id=":26_3_1" index="1" disallow="pedestrian tram rail_urban rail rail_electric rail_fast ship" speed="17.88" length="15.60" width="3.50" shape="593.51,221.45,26.05 579.75,228.80,25.91">
            <param key="origId" value="27_1"/>
        </lane>
    </edge>
    <edge id=":35_0" function="internal">
        <lane id=":35_0_0" index="0" disallow="pedestrian tram rail_urban rail rail_electric rail_fast ship" speed="9.11" length="18.32" width="3.50" shape="630.62,337.28,28.92 634.49,334.27,28.86 636.47,330.67,28.81 636.57,326.47,28.76 634.78,321.68,28.70">
            <param key="origId" value="37_1"/>
        </lane>
    </edge>
    <edge id=":35_1" function="internal">
        <lane id=":35_1_0" index="0" disallow="pedestrian tram rail_urban rail rail_electric rail_fast ship" speed="17.88" length="20.04" width="3.50" shape="632.34,340.33,28.92 649.95,330.77,29.18">
            <param key="origId" value="36_1"/>
            <param key="signalID" value="94"/>
        </lane>
    </edge>
    <edge id=":38_0" function="internal">
        <lane id=":38_0_0" index="0" disallow="pedestrian tram rail_urban rail rail_electric rail_fast ship" speed="6.62" length="9.27" width="3.50" shape="441.15,440.26,26.87 443.18,438.74,26.84 444.24,436.93,26.81 444.32,434.83,26.79 443.42,432.45,26.75">
            <param key="origId" value="40_1"/>
        </lane>
    </edge>
    <edge id=":38_1" function="internal">
        <lane id=":38_1_0" index="0" disallow="pedestrian tram rail_urban rail rail_electric rail_fast ship" speed="17.88" length="14.90" width="3.50" shape="441.15,440.26,26.87 454.20,433.08,27.08">
            <param key="origId" value="39_2"/>
        </lane>
        <lane id=":38_1_1" index="1" disallow="pedestrian tram rail_urban rail rail_electric rail_fast ship" speed="17.88" length="14.90" width="3.50" shape="442.84,443.33,26.87 455.90,436.14,27.09">
            <param key="origId" value="39_1"/>
        </lane>
    </edge>
    <edge id=":41_0" function="internal">
        <lane id=":41_0_0" index="0" disallow="pedestrian tram rail_urban rail rail_electric rail_fast ship" speed="6.60" length="9.25" width="3.50" shape="393.48,338.92,23.99 391.99,336.86,23.97 390.20,335.77,23.95 388.12,335.66,23.93 385.74,336.52,23.91">
            <param key="origId" value="43_-1"/>
        </lane>
        <lane id=":41_0_1" index="1" disallow="pedestrian tram rail_urban rail rail_electric rail_fast ship" speed="8.20" length="14.92" width="3.50" shape="396.58,337.28,23.99 394.17,333.96,23.97 391.29,332.22,23.95 387.93,332.04,23.93 384.09,333.43,23.91">
            <param key="origId" value="42_-1"/>
        </lane>
    </edge>
    <edge id=":41_2" function="internal">
        <lane id=":41_2_0" index="0" disallow="pedestrian tram rail_urban rail rail_electric rail_fast ship" speed="17.88" length="14.88" width="3.50" shape="398.86,329.51,24.00 385.74,336.52,23.91">
            <param key="origId" value="46_2"/>
        </lane>
        <lane id=":41_2_1" index="1" disallow="pedestrian tram rail_urban rail rail_electric rail_fast ship" speed="17.88" length="14.88" width="3.50" shape="397.21,326.42,24.00 384.09,333.43,23.91">
            <param key="origId" value="46_1"/>
        </lane>
    </edge>
    <edge id=":48_0" function="internal">
        <lane id=":48_0_0" index="0" disallow="pedestrian tram rail_urban rail rail_electric rail_fast ship" speed="10.61" length="20.18" width="3.50" shape="214.57,435.00,21.98 215.31,438.77,22.13 217.89,442.14,22.30 222.30,445.12,22.51 228.54,447.71,22.77">
            <param key="origId" value="52_2"/>
        </lane>
        <lane id=":48_0_1" index="1" disallow="pedestrian tram rail_urban rail rail_electric rail_fast ship" speed="11.69" length="24.69" width="3.50" shape="211.07,434.85,21.98 211.92,439.83,22.14 214.94,444.18,22.31 220.11,447.92,22.52 227.43,451.03,22.77">
            <param key="origId" value="52_1"/>
        </lane>
    </edge>
    <edge id=":48_2" function="internal">
        <lane id=":48_2_0" index="0" disallow="pedestrian tram rail_urban rail rail_electric rail_fast ship" speed="17.88" length="28.06" width="3.50" shape="201.86,438.91,22.12 228.54,447.71,22.77">
            <param key="origId" value="49_-2"/>
        </lane>
        <lane id=":48_2_1" index="1" disallow="pedestrian tram rail_urban rail rail_electric rail_fast ship" speed="17.88" length="28.06" width="3.50" shape="200.84,442.26,22.12 227.43,451.03,22.77">
            <param key="origId" value="49_-1"/>
        </lane>
    </edge>
    <edge id=":57_0" function="internal">
        <lane id=":57_0_0" index="0" disallow="all" speed="17.88" length="16.66" width="0.50" shape="214.25,264.03,16.86 199.61,271.98,16.73">
            <param key="origId" value="58_4"/>
        </lane>
    </edge>
    <edge id=":57_1" function="internal">
        <lane id=":57_1_0" index="0" disallow="pedestrian tram rail_urban rail rail_electric rail_fast ship" speed="8.94" length="12.20" width="3.50" shape="213.31,262.27,16.86 210.73,264.11,16.88 208.96,266.41,16.90 208.02,269.17,16.92 207.88,272.39,16.94">
            <param key="origId" value="60_1"/>
        </lane>
    </edge>
    <edge id=":57_2" function="internal">
        <lane id=":57_2_0" index="0" disallow="pedestrian tram rail_urban rail rail_electric rail_fast ship" speed="17.88" length="16.69" width="3.50" shape="213.31,262.27,16.86 198.65,270.23,16.73">
            <param key="origId" value="58_3"/>
        </lane>
        <lane id=":57_2_1" index="1" disallow="pedestrian tram rail_urban rail rail_electric rail_fast ship" speed="17.88" length="16.69" width="3.50" shape="211.65,259.19,16.86 196.98,267.16,16.73">
            <param key="origId" value="58_2"/>
        </lane>
        <lane id=":57_2_2" index="2" disallow="all" speed="17.88" length="16.69" width="0.50" shape="210.70,257.43,16.86 196.02,265.40,16.73">
            <param key="origId" value="58_1"/>
        </lane>
    </edge>
    <edge id=":62_0" function="internal">
        <lane id=":62_0_0" index="0" disallow="pedestrian tram rail_urban rail rail_electric rail_fast ship" speed="6.67" length="9.38" width="3.50" shape="679.51,183.93,28.22 677.91,181.99,28.08 676.04,181.02,27.96 673.90,181.04,27.85 671.50,182.04,27.70">
            <param key="origId" value="64_-1"/>
        </lane>
    </edge>
    <edge id=":62_1" function="internal">
        <lane id=":62_1_0" index="0" disallow="pedestrian tram rail_urban rail rail_electric rail_fast ship" speed="17.88" length="14.90" width="3.50" shape="679.51,183.93,28.22 671.70,171.30,27.69">
            <param key="origId" value="63_-2"/>
        </lane>
        <lane id=":62_1_1" index="1" disallow="pedestrian tram rail_urban rail rail_electric rail_fast ship" speed="17.88" length="14.90" width="3.50" shape="682.51,182.12,28.22 674.66,169.43,27.69">
            <param key="origId" value="63_-1"/>
        </lane>
    </edge>
    <edge id=":65_0" function="internal">
        <lane id=":65_0_0" index="0" disallow="pedestrian tram rail_urban rail rail_electric rail_fast ship" speed="9.04" length="14.77" width="3.50" shape="346.36,97.07,17.81 342.45,97.40,17.76 339.29,98.81,17.71 336.88,101.30,17.66 335.23,104.86,17.61">
            <param key="origId" value="67_1"/>
        </lane>
        <lane id=":65_0_1" index="1" disallow="pedestrian tram rail_urban rail rail_electric rail_fast ship" speed="10.30" length="19.43" width="3.50" shape="346.53,93.58,17.81 341.38,94.01,17.76 337.23,95.86,17.71 334.06,99.13,17.66 331.89,103.82,17.61">
            <param key="origId" value="66_1"/>
        </lane>
    </edge>
    <edge id=":65_2" function="internal">
        <lane id=":65_2_0" index="0" disallow="all" speed="17.88" length="17.46" width="0.50" shape="342.18,88.66,17.74 337.14,105.46,17.61">
            <param key="origId" value="71_4"/>
        </lane>
        <lane id=":65_2_1" index="1" disallow="pedestrian tram rail_urban rail rail_electric rail_fast ship" speed="17.88" length="17.46" width="3.50" shape="340.26,88.10,17.74 335.23,104.86,17.61">
            <param key="origId" value="71_3"/>
        </lane>
        <lane id=":65_2_2" index="2" disallow="pedestrian tram rail_urban rail rail_electric rail_fast ship" speed="17.88" length="17.46" width="3.50" shape="336.90,87.13,17.74 331.89,103.82,17.61">
            <param key="origId" value="71_2"/>
        </lane>
        <lane id=":65_2_3" index="3" disallow="all" speed="17.88" length="17.46" width="0.50" shape="334.98,86.57,17.74 329.98,103.22,17.61">
            <param key="origId" value="71_1"/>
        </lane>
    </edge>
    <edge id=":7#1_0" function="internal">
        <lane id=":7#1_0_0" index="0" disallow="pedestrian tram rail_urban rail rail_electric rail_fast ship" speed="17.88" length="3.06" width="3.50" shape="344.70,69.33,17.85 344.61,70.25,17.84 344.67,70.89,17.84 344.71,71.53,17.84 344.59,72.44,17.84"/>
        <lane id=":7#1_0_1" index="1" disallow="pedestrian tram rail_urban rail rail_electric rail_fast ship" speed="17.88" length="3.06" width="3.50" shape="341.26,68.69,17.85 341.18,69.56,17.84 341.24,70.18,17.84 341.29,70.79,17.84 341.18,71.66,17.84"/>
    </edge>
    <edge id=":76_0" function="internal">
        <lane id=":76_0_0" index="0" disallow="pedestrian tram rail_urban rail rail_electric rail_fast ship" speed="17.88" length="21.45" width="3.50" shape="280.24,392.94,21.01 261.51,403.29,20.54">
            <param key="origId" value="77_2"/>
        </lane>
        <lane id=":76_0_1" index="1" disallow="pedestrian tram rail_urban rail rail_electric rail_fast ship" speed="17.88" length="21.45" width="3.50" shape="278.59,389.85,21.01 259.79,400.24,20.54">
            <param key="origId" value="77_1"/>
        </lane>
    </edge>
    <edge id=":76_2" function="internal">
        <lane id=":76_2_0" index="0" disallow="pedestrian tram rail_urban rail rail_electric rail_fast ship" speed="10.74" length="22.08" width="3.50" shape="268.04,384.20,20.18 269.16,390.30,20.28 268.45,395.52,20.37 265.90,399.85,20.45 261.51,403.29,20.54">
            <param key="origId" value="85_-1"/>
        </lane>
        <lane id=":76_2_1" index="1" disallow="pedestrian tram rail_urban rail rail_electric rail_fast ship" speed="9.57" length="17.27" width="3.50" shape="264.69,385.23,20.18 265.60,390.08,20.28 265.08,394.19,20.37 263.15,397.58,20.45 259.79,400.24,20.54">
            <param key="origId" value="82_-1"/>
        </lane>
    </edge>

    <edge id="-0" from="35" to="62" priority="1" type="driving" shape="649.07,333.20,29.16 649.94,332.75,29.17 650.82,332.29,29.18 651.69,331.83,29.19 652.56,331.37,29.20 653.43,330.92,29.21 654.31,330.46,29.22 655.18,330.00,29.23 656.05,329.55,29.24 656.92,329.09,29.25 657.80,328.63,29.26 658.67,328.17,29.27 659.54,327.72,29.28 660.41,327.26,29.29 661.29,326.80,29.30 662.16,326.35,29.31 663.03,325.89,29.32 663.90,325.43,29.33 664.78,324.98,29.34 665.65,324.52,29.35 666.52,324.06,29.36 667.39,323.60,29.37 668.27,323.15,29.38 669.14,322.69,29.39 670.01,322.23,29.40 670.88,321.78,29.41 671.76,321.32,29.42 672.63,320.86,29.43 673.50,320.40,29.44 674.37,319.95,29.45 675.25,319.49,29.46 676.13,319.03,29.47 677.02,318.57,29.48 677.90,318.12,29.49 678.78,317.67,29.50 679.67,317.21,29.51 680.55,316.76,29.52 681.44,316.32,29.53 682.33,315.87,29.54 683.21,315.43,29.55 684.11,314.98,29.56 684.22,314.93,29.56 685.10,314.49,29.57 685.99,314.05,29.58 686.87,313.61,29.59 687.75,313.18,29.60 688.63,312.74,29.61 689.52,312.30,29.62 690.40,311.86,29.63 691.28,311.42,29.64 692.17,310.99,29.65 693.05,310.55,29.66 693.93,310.11,29.67 694.82,309.67,29.69 695.70,309.24,29.70 696.58,308.80,29.71 697.47,308.36,29.72 698.35,307.92,29.73 699.23,307.48,29.74 700.12,307.05,29.75 701.02,306.60,29.76 701.92,306.15,29.77 702.82,305.70,29.78 703.71,305.24,29.79 704.15,305.02,29.79 705.02,304.58,29.80 705.88,304.14,29.81 706.75,303.71,29.82 707.61,303.27,29.83 708.48,302.83,29.84 709.35,302.39,29.85 710.21,301.95,29.86 711.08,301.51,29.88 711.94,301.07,29.89 712.81,300.63,29.90 713.67,300.19,29.91 714.54,299.75,29.92 715.40,299.32,29.93 716.27,298.88,29.94 717.14,298.44,29.95 718.00,298.00,29.96 718.87,297.56,29.97 719.73,297.12,29.98 720.60,296.68,29.99 721.46,296.24,30.00 722.33,295.80,30.01 723.20,295.36,30.02 724.06,294.93,30.03 724.57,294.67,30.04 725.20,294.35,30.04 726.31,293.70,30.05 727.44,292.83,30.06 728.46,291.84,30.07 729.36,290.72,30.08 730.07,289.57,30.09 730.55,288.58,30.09 731.03,287.24,30.10 731.33,285.79,30.10 731.44,284.32,30.10 731.34,282.85,30.10 731.06,281.49,30.10 730.77,280.57,30.10 730.43,279.64,30.10 730.10,278.77,30.10 729.78,277.89,30.09 729.45,277.02,30.09 729.13,276.14,30.08 728.80,275.27,30.08 728.48,274.40,30.08 728.17,273.55,30.07 727.85,272.70,30.07 727.54,271.86,30.06 727.22,271.01,30.06 726.87,270.07,30.06 726.52,269.13,30.05 726.16,268.18,30.05 725.81,267.24,30.04 725.45,266.30,30.04 725.09,265.36,30.03 724.72,264.42,30.03 724.36,263.48,30.03 723.99,262.55,30.02 723.63,261.61,30.02 723.26,260.67,30.01 722.88,259.74,30.01 722.51,258.80,30.00 722.13,257.87,30.00 721.76,256.93,30.00 721.38,256.00,29.99 721.00,255.07,29.99 720.61,254.14,29.98 720.23,253.21,29.98 719.84,252.28,29.97 719.45,251.35,29.97 719.06,250.42,29.96 718.67,249.49,29.95 718.27,248.57,29.94 717.88,247.64,29.94 717.48,246.72,29.93 717.08,245.79,29.92 716.68,244.87,29.91 716.27,243.94,29.90 715.87,243.02,29.89 715.46,242.10,29.88 715.05,241.18,29.86 714.64,240.26,29.85 714.23,239.34,29.84 713.81,238.43,29.83 713.40,237.51,29.82 712.98,236.59,29.81 712.56,235.68,29.80 712.14,234.76,29.78 711.71,233.85,29.77 711.29,232.94,29.76 710.86,232.03,29.75 710.43,231.12,29.74 710.00,230.21,29.73 709.57,229.30,29.71 709.13,228.39,29.70 708.70,227.48,29.69 708.26,226.57,29.68 707.82,225.67,29.67 707.37,224.76,29.65 706.93,223.86,29.64 706.49,222.96,29.63 706.35,222.68,29.62 705.91,221.80,29.61 705.47,220.92,29.59 705.04,220.03,29.58 704.60,219.15,29.56 704.16,218.27,29.54 703.73,217.39,29.52 703.29,216.50,29.50 702.84,215.60,29.48 702.39,214.70,29.46 701.94,213.80,29.44 701.49,212.90,29.42 701.03,212.00,29.39 700.57,211.11,29.37 700.11,210.21,29.34 699.65,209.32,29.32 699.19,208.42,29.29 698.73,207.53,29.26 698.26,206.63,29.23 697.79,205.74,29.20 697.32,204.85,29.18 696.85,203.96,29.14 696.38,203.07,29.11 695.91,202.18,29.08 695.43,201.30,29.05 694.95,200.41,29.01 694.47,199.53,28.98 693.99,198.64,28.94 693.50,197.76,28.91 693.02,196.88,28.87 692.53,196.00,28.84 692.04,195.11,28.80 691.55,194.24,28.76 691.06,193.36,28.73 690.57,192.48,28.69 690.07,191.60,28.65 689.57,190.73,28.62 689.07,189.85,28.58 688.57,188.98,28.55 688.07,188.11,28.51 687.56,187.24,28.47 687.06,186.37,28.44 686.55,185.50,28.40 686.04,184.63,28.36 685.53,183.76,28.33 685.01,182.89,28.29 684.50,182.03,28.26 683.98,181.17,28.22 683.46,180.30,28.18 683.04,179.60,28.15">
        <lane id="-0_0" index="0" disallow="pedestrian tram rail_urban rail rail_electric rail_fast ship" speed="17.88" length="204.08" width="3.50" shape="648.33,327.67,29.18 649.24,327.19,29.19 650.13,326.72,29.20 651.01,326.26,29.21 651.87,325.81,29.22 652.75,325.35,29.23 653.62,324.90,29.24 654.48,324.44,29.25 655.36,323.98,29.26 656.24,323.52,29.27 657.11,323.07,29.28 657.97,322.61,29.29 658.87,322.14,29.30 659.73,321.70,29.31 660.58,321.25,29.32 661.48,320.77,29.33 662.36,320.32,29.34 663.20,319.88,29.35 664.07,319.42,29.36 664.97,318.94,29.37 665.85,318.49,29.38 666.69,318.05,29.39 667.58,317.58,29.40 668.46,317.12,29.41 669.32,316.67,29.42 670.18,316.22,29.43 671.07,315.75,29.44 671.95,315.29,29.45 672.82,314.84,29.46 673.71,314.37,29.47 674.62,313.90,29.48 675.51,313.45,29.49 676.38,313.00,29.50 677.27,312.54,29.51 678.19,312.07,29.52 679.09,311.62,29.53 679.97,311.18,29.54 680.86,310.73,29.55 681.78,310.27,29.56 681.89,310.22,29.56 682.76,309.79,29.57 683.65,309.35,29.58 684.54,308.90,29.59 685.42,308.47,29.60 686.29,308.04,29.61 687.18,307.60,29.62 688.05,307.16,29.63 688.96,306.71,29.64 689.85,306.28,29.65 690.70,305.85,29.66 691.59,305.41,29.67 692.50,304.96,29.69 693.37,304.53,29.70 694.24,304.10,29.71 695.13,303.66,29.72 696.00,303.22,29.73 696.91,302.77,29.74 697.80,302.34,29.75 698.67,301.90,29.76 699.57,301.45,29.77 700.44,301.02,29.78 701.32,300.57,29.79 701.79,300.33,29.79 702.64,299.90,29.80 703.52,299.45,29.81 704.39,299.02,29.82 705.23,298.59,29.83 706.11,298.15,29.84 706.97,297.71,29.85 707.83,297.27,29.86 708.70,296.83,29.88 709.56,296.39,29.89 710.43,295.95,29.90 711.29,295.51,29.91 712.18,295.06,29.92 713.04,294.63,29.93 713.90,294.20,29.94 714.76,293.76,29.95 715.62,293.32,29.96 716.49,292.88,29.97 717.35,292.44,29.98 718.22,292.00,29.99 719.08,291.56,30.00 719.96,291.12,30.01 720.84,290.67,30.02 721.70,290.24,30.03 722.19,289.99,30.04 722.64,289.76,30.04 723.37,289.34,30.05 724.00,288.85,30.06 724.57,288.30,30.07 725.06,287.69,30.08 725.46,287.04,30.09 725.70,286.54,30.09 725.96,285.82,30.10 726.12,285.06,30.10 726.18,284.30,30.10 726.13,283.56,30.10 725.97,282.76,30.10 725.80,282.26,30.10 725.51,281.47,30.10 725.18,280.60,30.10 724.86,279.72,30.09 724.53,278.85,30.09 724.21,277.97,30.08 723.88,277.11,30.08 723.55,276.21,30.08 723.25,275.37,30.07 722.93,274.53,30.07 722.62,273.69,30.06 722.30,272.85,30.06 721.95,271.90,30.06 721.61,270.98,30.05 721.25,270.03,30.05 720.90,269.09,30.04 720.55,268.18,30.04 720.20,267.26,30.03 719.83,266.32,30.03 719.47,265.39,30.03 719.10,264.46,30.02 718.74,263.51,30.02 718.39,262.62,30.01 718.01,261.69,30.01 717.64,260.75,30.00 717.26,259.82,30.00 716.89,258.88,30.00 716.52,257.99,29.99 716.15,257.08,29.99 715.76,256.15,29.98 715.38,255.22,29.98 715.00,254.31,29.97 714.61,253.38,29.97 714.22,252.45,29.96 713.84,251.55,29.95 713.44,250.63,29.94 713.05,249.70,29.94 712.66,248.80,29.93 712.26,247.87,29.92 711.87,246.98,29.91 711.46,246.05,29.90 711.06,245.14,29.89 710.66,244.24,29.88 710.25,243.32,29.86 709.84,242.40,29.85 709.45,241.51,29.84 709.03,240.60,29.83 708.61,239.67,29.82 708.21,238.78,29.81 707.79,237.87,29.80 707.38,236.97,29.78 706.95,236.07,29.77 706.53,235.16,29.76 706.11,234.27,29.75 705.68,233.36,29.74 705.25,232.45,29.73 704.83,231.56,29.71 704.39,230.65,29.70 703.96,229.74,29.69 703.54,228.87,29.68 703.11,227.99,29.67 702.66,227.08,29.65 702.21,226.17,29.64 701.78,225.28,29.63 701.65,225.03,29.62 701.21,224.15,29.61 700.76,223.24,29.59 700.33,222.35,29.58 699.90,221.50,29.56 699.45,220.60,29.54 699.02,219.71,29.52 698.59,218.84,29.50 698.14,217.95,29.48 697.69,217.05,29.46 697.24,216.15,29.44 696.80,215.27,29.42 696.36,214.40,29.39 695.90,213.51,29.37 695.44,212.61,29.34 694.98,211.72,29.32 694.52,210.82,29.29 694.07,209.95,29.26 693.61,209.07,29.23 693.15,208.19,29.20 692.68,207.30,29.18 692.21,206.41,29.14 691.74,205.52,29.11 691.28,204.66,29.08 690.82,203.80,29.05 690.34,202.91,29.01 689.86,202.03,28.98 689.39,201.16,28.94 688.90,200.29,28.91 688.42,199.41,28.87 687.94,198.54,28.84 687.45,197.66,28.80 686.97,196.81,28.76 686.47,195.91,28.73 685.99,195.05,28.69 685.51,194.20,28.65 685.01,193.33,28.62 684.51,192.45,28.58 684.02,191.60,28.55 683.53,190.75,28.51 683.02,189.88,28.47 682.52,189.01,28.44 682.02,188.16,28.40 681.51,187.29,28.36 681.01,186.43,28.33 680.50,185.58,28.29 680.00,184.73,28.26 679.51,183.93,28.22" type="driving">
            <param key="origId" value="0_-2 19_-2 23_-2"/>
        </lane>
        <lane id="-0_1" index="1" disallow="pedestrian tram rail_urban rail rail_electric rail_fast ship" speed="17.88" length="204.08" width="3.50" shape="649.95,330.77,29.18 650.87,330.28,29.19 651.75,329.82,29.20 652.62,329.37,29.21 653.50,328.91,29.22 654.37,328.45,29.23 655.24,328.00,29.24 656.11,327.54,29.25 656.99,327.08,29.26 657.86,326.62,29.27 658.73,326.17,29.28 659.60,325.71,29.29 660.48,325.25,29.30 661.35,324.80,29.31 662.21,324.34,29.32 663.09,323.88,29.33 663.97,323.43,29.34 664.83,322.97,29.35 665.70,322.51,29.36 666.58,322.05,29.37 667.46,321.60,29.38 668.32,321.14,29.39 669.20,320.68,29.40 670.07,320.23,29.41 670.95,319.77,29.42 671.81,319.31,29.43 672.69,318.85,29.44 673.56,318.40,29.45 674.44,317.94,29.46 675.32,317.48,29.47 676.22,317.01,29.48 677.10,316.56,29.49 677.98,316.11,29.50 678.87,315.65,29.51 679.76,315.20,29.52 680.66,314.75,29.53 681.54,314.31,29.54 682.43,313.86,29.55 683.33,313.41,29.56 683.44,313.36,29.56 684.32,312.92,29.57 685.21,312.48,29.58 686.09,312.04,29.59 686.97,311.61,29.60 687.85,311.17,29.61 688.74,310.73,29.62 689.62,310.29,29.63 690.51,309.85,29.64 691.40,309.42,29.65 692.27,308.98,29.66 693.15,308.54,29.67 694.05,308.10,29.69 694.92,307.67,29.70 695.80,307.23,29.71 696.69,306.79,29.72 697.57,306.35,29.73 698.46,305.91,29.74 699.35,305.48,29.75 700.24,305.03,29.76 701.14,304.58,29.77 702.03,304.14,29.78 702.91,303.68,29.79 703.36,303.46,29.79 704.23,303.02,29.80 705.09,302.58,29.81 705.96,302.15,29.82 706.82,301.71,29.83 707.69,301.27,29.84 708.56,300.83,29.85 709.42,300.39,29.86 710.29,299.95,29.88 711.15,299.51,29.89 712.02,299.07,29.90 712.88,298.63,29.91 713.75,298.19,29.92 714.61,297.76,29.93 715.48,297.32,29.94 716.35,296.88,29.95 717.21,296.44,29.96 718.08,296.00,29.97 718.94,295.56,29.98 719.81,295.12,29.99 720.67,294.68,30.00 721.54,294.24,30.01 722.41,293.80,30.02 723.27,293.37,30.03 723.78,293.11,30.04 724.35,292.82,30.04 725.33,292.25,30.05 726.29,291.50,30.06 727.16,290.66,30.07 727.93,289.71,30.08 728.53,288.73,30.09 728.93,287.90,30.09 729.34,286.77,30.10 729.59,285.55,30.10 729.69,284.31,30.10 729.60,283.09,30.10 729.36,281.91,30.10 729.11,281.13,30.10 728.79,280.25,30.10 728.46,279.38,30.10 728.14,278.50,30.09 727.81,277.63,30.09 727.49,276.75,30.08 727.16,275.88,30.08 726.84,275.00,30.08 726.53,274.16,30.07 726.21,273.31,30.07 725.90,272.47,30.06 725.58,271.62,30.06 725.23,270.68,30.06 724.88,269.75,30.05 724.52,268.80,30.05 724.17,267.86,30.04 723.82,266.93,30.04 723.46,265.99,30.03 723.09,265.05,30.03 722.73,264.12,30.03 722.36,263.19,30.02 722.00,262.24,30.02 721.64,261.32,30.01 721.26,260.39,30.01 720.89,259.45,30.00 720.51,258.52,30.00 720.14,257.58,30.00 719.76,256.66,29.99 719.38,255.74,29.99 718.99,254.81,29.98 718.61,253.88,29.98 718.23,252.96,29.97 717.84,252.03,29.97 717.45,251.10,29.96 717.06,250.18,29.95 716.66,249.26,29.94 716.27,248.33,29.94 715.87,247.41,29.93 715.47,246.48,29.92 715.08,245.57,29.91 714.67,244.64,29.90 714.27,243.73,29.89 713.86,242.81,29.88 713.45,241.89,29.86 713.04,240.97,29.85 712.64,240.06,29.84 712.22,239.15,29.83 711.80,238.23,29.82 711.39,237.32,29.81 710.97,236.41,29.80 710.55,235.50,29.78 710.12,234.59,29.77 709.70,233.68,29.76 709.28,232.78,29.75 708.85,231.87,29.74 708.42,230.96,29.73 707.99,230.05,29.71 707.55,229.14,29.70 707.12,228.23,29.69 706.69,227.34,29.68 706.25,226.44,29.67 705.80,225.53,29.65 705.36,224.63,29.64 704.92,223.73,29.63 704.78,223.46,29.62 704.34,222.58,29.61 703.90,221.69,29.59 703.47,220.80,29.58 703.03,219.93,29.56 702.59,219.05,29.54 702.16,218.16,29.52 701.72,217.28,29.50 701.27,216.38,29.48 700.82,215.48,29.46 700.37,214.58,29.44 699.93,213.69,29.42 699.47,212.80,29.39 699.01,211.91,29.37 698.55,211.01,29.34 698.09,210.12,29.32 697.63,209.22,29.29 697.18,208.34,29.26 696.71,207.44,29.23 696.24,206.56,29.20 695.77,205.67,29.18 695.30,204.78,29.14 694.83,203.89,29.11 694.37,203.01,29.08 693.89,202.13,29.05 693.41,201.24,29.01 692.93,200.36,28.98 692.46,199.48,28.94 691.97,198.60,28.91 691.49,197.72,28.87 691.00,196.85,28.84 690.51,195.96,28.80 690.02,195.10,28.76 689.53,194.21,28.73 689.04,193.34,28.69 688.55,192.47,28.65 688.05,191.60,28.62 687.55,190.72,28.58 687.05,189.85,28.55 686.56,188.99,28.51 686.05,188.12,28.47 685.55,187.25,28.44 685.04,186.39,28.40 684.53,185.52,28.36 684.02,184.65,28.33 683.51,183.79,28.29 683.00,182.93,28.26 682.51,182.12,28.22" type="driving">
            <param key="origId" value="0_-1 19_-1 23_-1"/>
        </lane>
    </edge>