<?xml version='1.0' encoding='UTF-8'?>
<!-- generated on 2024-04-23 23:56:07 by Eclipse SUMO netconvert Version 1.14.1
<configuration xmlns:xsi="http://www.w3.org/2001/XMLSchema-instance" xsi:noNamespaceSchemaLocation="http://sumo.dlr.de/xsd/netconvertConfiguration.xsd">

    <input>
        <type-files value="C:\Users\phill\Documents\URAP%20-%20CARLA\Sumo%20Data%20Collection\CARLA%20OpenDrive%20Maps/opendrive_netconvert.typ.xml"/>
        <opendrive-files value="CARLA%20OpenDrive%20Maps/Town02.xodr"/>
    </input>

    <output>
        <output-file value="C:\Users\phill\AppData\Local\Temp\tmpnackwqkw\Town02.net.xml"/>
        <output.original-names value="true"/>
    </output>

    <processing>
        <geometry.remove value="true"/>
        <geometry.min-radius.fix value="true"/>
    </processing>

    <tls_building>
        <tls.discard-loaded value="true"/>
    </tls_building>

    <formats>
        <opendrive.import-all-lanes value="true"/>
        <opendrive.curve-resolution value="1"/>
    </formats>

</configuration>
-->
<net xmlns:xsi="http://www.w3.org/2001/XMLSchema-instance" version="1.9" junctionCornerDetail="5" rectangularLaneCut="true" limitTurnSpeed="5.50" xsi:noNamespaceSchemaLocation="http://sumo.dlr.de/xsd/net_file.xsd">
  <location netOffset="5.46,304.56" convBoundary="0.00,0.00,197.20,197.17" origBoundary="-5.46,-304.56,191.74,-107.39" projParameter="!"/>
  <type id="bidirectional" priority="1" speed="1.39" disallow="pedestrian tram rail_urban rail rail_electric rail_fast ship" width="3.65"/>
  <type id="biking" priority="-1" speed="5.56" allow="bicycle" width="1.50"/>
  <type id="border" priority="0" speed="1.39" disallow="all" discard="1" width="0.10"/>
  <type id="driving" priority="1" speed="13.89" disallow="pedestrian tram rail_urban rail rail_electric rail_fast ship" width="3.65"/>
  <type id="entry" priority="1" speed="22.22" disallow="pedestrian tram rail_urban rail rail_electric rail_fast ship" width="3.65"/>
  <type id="exit" priority="1" speed="22.22" disallow="pedestrian tram rail_urban rail rail_electric rail_fast ship" width="3.65"/>
  <type id="median" priority="0" speed="1.39" disallow="all" discard="1" width="0.10"/>
  <type id="mwyEntry" priority="1" speed="22.22" allow="private emergency authority army vip passenger hov taxi bus coach delivery truck trailer motorcycle evehicle custom1 custom2" width="3.65"/>
  <type id="mwyExit" priority="1" speed="22.22" allow="private emergency authority army vip passenger hov taxi bus coach delivery truck trailer motorcycle evehicle custom1 custom2" width="3.65"/>
  <type id="none" priority="0" speed="1.39" disallow="all" discard="1" width="1.00"/>
  <type id="offRamp" priority="1" speed="22.22" allow="private emergency authority army vip passenger hov taxi bus coach delivery truck trailer motorcycle evehicle custom1 custom2" width="3.65"/>
  <type id="onRamp" priority="1" speed="22.22" allow="private emergency authority army vip passenger hov taxi bus coach delivery truck trailer motorcycle evehicle custom1 custom2" width="3.65"/>
  <type id="parking" priority="1" speed="1.39" disallow="pedestrian tram rail_urban rail rail_electric rail_fast ship" width="2.50"/>
  <type id="rail" priority="3" speed="33.33" allow="rail_urban rail rail_electric rail_fast" width="3.65"/>
  <type id="restricted" priority="0" speed="13.89" disallow="all" width="3.65"/>
  <type id="roadWorks" priority="0" speed="1.39" allow="authority" width="3.65"/>
  <type id="shoulder" priority="0" speed="1.39" disallow="all" discard="1" width="1.00"/>
  <type id="sidewalk" priority="-2" speed="2.78" allow="pedestrian" width="2.50"/>
  <type id="special1" priority="1" speed="22.22" allow="custom1" discard="1" width="3.65"/>
  <type id="special2" priority="1" speed="22.22" allow="custom2" discard="1" width="3.65"/>
  <type id="special3" priority="1" speed="22.22" allow="custom1 custom2" discard="1" width="3.65"/>
  <type id="stop" priority="1" speed="13.89" disallow="pedestrian tram rail_urban rail rail_electric rail_fast ship" width="3.65"/>
  <type id="tram" priority="2" speed="13.89" allow="tram" width="3.65"/>
  <edge id=":125_0" function="internal">
    <lane id=":125_0_0" index="0" disallow="pedestrian tram rail_urban rail rail_electric rail_fast ship" speed="13.89" length="19.60" width="4.00" shape="59.12,116.98 39.52,116.99">
      <param key="origId" value="139_1"/>
    </lane>
  </edge>
  <edge id=":125_1" function="internal">
    <lane id=":125_1_0" index="0" disallow="pedestrian tram rail_urban rail rail_electric rail_fast ship" speed="9.24" length="5.81" width="4.00" shape="59.12,116.98 53.95,116.25 53.44,115.95">
      <param key="origId" value="155_1"/>
    </lane>
  </edge>
  <edge id=":125_6" function="internal">
    <lane id=":125_6_0" index="0" disallow="pedestrian tram rail_urban rail rail_electric rail_fast ship" speed="9.24" length="13.23" width="4.00" shape="53.44,115.95 50.26,114.04 48.05,110.35 47.31,105.18">
      <param key="origId" value="155_1"/>
    </lane>
  </edge>
  <edge id=":125_2" function="internal">
    <lane id=":125_2_0" index="0" disallow="pedestrian tram rail_urban rail rail_electric rail_fast ship" speed="7.64" length="12.58" width="4.00" shape="51.31,105.18 51.80,108.60 53.26,111.04 55.70,112.50 59.11,112.98">
      <param key="origId" value="150_-1"/>
    </lane>
  </edge>
  <edge id=":125_3" function="internal">
    <lane id=":125_3_0" index="0" disallow="pedestrian tram rail_urban rail rail_electric rail_fast ship" speed="9.25" length="19.03" width="4.00" shape="51.31,105.18 50.57,110.35 48.36,114.04 44.68,116.25 39.52,116.99">
      <param key="origId" value="127_1"/>
    </lane>
  </edge>
  <edge id=":125_4" function="internal">
    <lane id=":125_4_0" index="0" disallow="pedestrian tram rail_urban rail rail_electric rail_fast ship" speed="7.64" length="12.58" width="4.00" shape="39.51,112.99 42.92,112.50 45.36,111.04 46.82,108.60 47.31,105.18">
      <param key="origId" value="126_-1"/>
    </lane>
  </edge>
  <edge id=":125_5" function="internal">
    <lane id=":125_5_0" index="0" disallow="pedestrian tram rail_urban rail rail_electric rail_fast ship" speed="13.89" length="19.60" width="4.00" shape="39.51,112.99 59.11,112.98">
      <param key="origId" value="140_-1"/>
    </lane>
  </edge>
  <edge id=":160_0" function="internal">
    <lane id=":160_0_0" index="0" disallow="pedestrian tram rail_urban rail rail_electric rail_fast ship" speed="7.64" length="12.58" width="4.00" shape="195.14,124.73 194.66,121.31 193.19,118.87 190.76,117.41 187.34,116.93">
      <param key="origId" value="191_1"/>
    </lane>
  </edge>
  <edge id=":160_1" function="internal">
    <lane id=":160_1_0" index="0" disallow="pedestrian tram rail_urban rail rail_electric rail_fast ship" speed="13.89" length="19.60" width="4.00" shape="195.14,124.73 195.15,105.13">
      <param key="origId" value="179_1"/>
    </lane>
  </edge>
  <edge id=":160_2" function="internal">
    <lane id=":160_2_0" index="0" disallow="pedestrian tram rail_urban rail rail_electric rail_fast ship" speed="13.89" length="19.60" width="4.00" shape="199.15,105.13 199.14,124.73">
      <param key="origId" value="180_-1"/>
    </lane>
  </edge>
  <edge id=":160_3" function="internal">
    <lane id=":160_3_0" index="0" disallow="pedestrian tram rail_urban rail rail_electric rail_fast ship" speed="9.25" length="5.80" width="4.00" shape="199.15,105.13 198.41,110.29 198.11,110.79">
      <param key="origId" value="165_-1"/>
    </lane>
  </edge>
  <edge id=":160_6" function="internal">
    <lane id=":160_6_0" index="0" disallow="pedestrian tram rail_urban rail rail_electric rail_fast ship" speed="9.25" length="13.23" width="4.00" shape="198.11,110.79 196.20,113.97 192.51,116.19 187.34,116.93">
      <param key="origId" value="165_-1"/>
    </lane>
  </edge>
  <edge id=":160_4" function="internal">
    <lane id=":160_4_0" index="0" disallow="pedestrian tram rail_urban rail rail_electric rail_fast ship" speed="7.64" length="12.58" width="4.00" shape="187.34,112.93 190.76,112.44 193.20,110.97 194.66,108.54 195.15,105.13">
      <param key="origId" value="161_1"/>
    </lane>
  </edge>
  <edge id=":160_5" function="internal">
    <lane id=":160_5_0" index="0" disallow="pedestrian tram rail_urban rail rail_electric rail_fast ship" speed="9.24" length="19.04" width="4.00" shape="187.34,112.93 192.50,113.66 196.19,115.87 198.41,119.56 199.14,124.73">
      <param key="origId" value="184_-1"/>
    </lane>
  </edge>
  <edge id=":195_0" function="internal">
    <lane id=":195_0_0" index="0" disallow="pedestrian tram rail_urban rail rail_electric rail_fast ship" speed="7.64" length="12.58" width="4.00" shape="47.32,9.83 46.83,6.41 45.37,3.98 42.93,2.51 39.52,2.02">
      <param key="origId" value="196_-1"/>
    </lane>
  </edge>
  <edge id=":195_1" function="internal">
    <lane id=":195_1_0" index="0" disallow="pedestrian tram rail_urban rail rail_electric rail_fast ship" speed="9.24" length="19.03" width="4.00" shape="47.32,9.83 48.06,4.67 50.27,0.98 53.95,-1.23 59.12,-1.97">
      <param key="origId" value="206_-1"/>
    </lane>
  </edge>
  <edge id=":195_2" function="internal">
    <lane id=":195_2_0" index="0" disallow="pedestrian tram rail_urban rail rail_electric rail_fast ship" speed="7.64" length="12.58" width="4.00" shape="59.12,2.03 55.71,2.52 53.27,3.98 51.81,6.42 51.32,9.83">
      <param key="origId" value="211_-1"/>
    </lane>
  </edge>
  <edge id=":195_3" function="internal">
    <lane id=":195_3_0" index="0" disallow="pedestrian tram rail_urban rail rail_electric rail_fast ship" speed="13.89" length="19.59" width="4.00" shape="59.12,2.03 39.52,2.02">
      <param key="origId" value="228_1"/>
    </lane>
  </edge>
  <edge id=":195_4" function="internal">
    <lane id=":195_4_0" index="0" disallow="pedestrian tram rail_urban rail rail_electric rail_fast ship" speed="13.89" length="19.59" width="4.00" shape="39.53,-1.98 59.12,-1.97">
      <param key="origId" value="229_-1"/>
    </lane>
  </edge>
  <edge id=":195_5" function="internal">
    <lane id=":195_5_0" index="0" disallow="pedestrian tram rail_urban rail rail_electric rail_fast ship" speed="9.25" length="5.80" width="4.00" shape="39.53,-1.98 44.69,-1.24 45.19,-0.94">
      <param key="origId" value="199_1"/>
    </lane>
  </edge>
  <edge id=":195_6" function="internal">
    <lane id=":195_6_0" index="0" disallow="pedestrian tram rail_urban rail rail_electric rail_fast ship" speed="9.25" length="13.23" width="4.00" shape="45.19,-0.94 48.37,0.98 50.58,4.67 51.32,9.83">
      <param key="origId" value="199_1"/>
    </lane>
  </edge>
  <edge id=":2.0_0" function="internal">
    <lane id=":2.0_0_0" index="0" allow="pedestrian" speed="2.78" length="23.11" width="4.00" shape="-6.21,11.35 -5.25,3.63 -2.39,-1.89 2.36,-5.20 9.00,-6.30"/>
    <lane id=":2.0_0_1" index="1" disallow="all" speed="1.39" length="23.11" width="0.30" shape="-4.06,11.35 -3.23,4.57 -0.77,-0.28 3.33,-3.18 9.06,-4.15"/>
    <lane id=":2.0_0_2" index="2" disallow="pedestrian tram rail_urban rail rail_electric rail_fast ship" speed="9.40" length="23.11" width="4.00" shape="-1.91,11.36 -1.22,5.51 0.85,1.34 4.30,-1.17 9.11,-2.00"/>
  </edge>
  <edge id=":2.0_3" function="internal">
    <lane id=":2.0_3_0" index="0" allow="pedestrian" speed="2.78" length="9.85" width="4.00" shape="9.32,6.30 8.04,6.66 7.13,7.63 6.57,9.20 6.39,11.37"/>
    <lane id=":2.0_3_1" index="1" disallow="all" speed="1.39" length="9.85" width="0.30" shape="9.22,4.15 7.04,4.69 5.49,6.07 4.55,8.30 4.24,11.37"/>
    <lane id=":2.0_3_2" index="2" disallow="pedestrian tram rail_urban rail rail_electric rail_fast ship" speed="7.96" length="9.85" width="4.00" shape="9.21,1.99 6.10,2.71 3.88,4.52 2.54,7.40 2.09,11.36"/>
  </edge>
  <edge id=":2.18_0" function="internal">
    <lane id=":2.18_0_0" index="0" allow="pedestrian" speed="2.78" length="2.10" width="4.00" shape="11.58,6.30 9.51,6.29"/>
    <lane id=":2.18_0_1" index="1" disallow="all" speed="1.39" length="2.10" width="0.30" shape="11.58,4.15 9.51,4.13"/>
    <lane id=":2.18_0_2" index="2" disallow="pedestrian tram rail_urban rail rail_electric rail_fast ship" speed="13.89" length="2.10" width="4.00" shape="11.58,2.00 9.41,1.98"/>
  </edge>
  <edge id=":2.18_3" function="internal">
    <lane id=":2.18_3_0" index="0" allow="pedestrian" speed="2.78" length="2.33" width="4.00" shape="9.20,-6.30 11.58,-6.30"/>
    <lane id=":2.18_3_1" index="1" disallow="all" speed="1.39" length="2.33" width="0.30" shape="9.26,-4.15 11.58,-4.15"/>
    <lane id=":2.18_3_2" index="2" disallow="pedestrian tram rail_urban rail rail_electric rail_fast ship" speed="13.89" length="2.33" width="4.00" shape="9.31,-2.00 11.58,-2.00"/>
  </edge>
  <edge id=":20_0" function="internal">
    <lane id=":20_0_0" index="0" disallow="pedestrian tram rail_urban rail rail_electric rail_fast ship" speed="7.64" length="12.59" width="4.00" shape="195.15,75.41 194.67,71.99 193.20,69.55 190.77,68.09 187.35,67.61">
      <param key="origId" value="32_1"/>
    </lane>
  </edge>
  <edge id=":20_1" function="internal">
    <lane id=":20_1_0" index="0" disallow="pedestrian tram rail_urban rail rail_electric rail_fast ship" speed="13.89" length="19.60" width="4.00" shape="195.15,75.41 195.16,55.81">
      <param key="origId" value="45_1"/>
    </lane>
  </edge>
  <edge id=":20_2" function="internal">
    <lane id=":20_2_0" index="0" disallow="pedestrian tram rail_urban rail rail_electric rail_fast ship" speed="13.89" length="19.60" width="4.00" shape="199.16,55.81 199.15,75.41">
      <param key="origId" value="46_-1"/>
    </lane>
  </edge>
  <edge id=":20_3" function="internal">
    <lane id=":20_3_0" index="0" disallow="pedestrian tram rail_urban rail rail_electric rail_fast ship" speed="9.25" length="5.80" width="4.00" shape="199.16,55.81 198.42,60.97 198.12,61.47">
      <param key="origId" value="21_1"/>
    </lane>
  </edge>
  <edge id=":20_6" function="internal">
    <lane id=":20_6_0" index="0" disallow="pedestrian tram rail_urban rail rail_electric rail_fast ship" speed="9.25" length="13.23" width="4.00" shape="198.12,61.47 196.21,64.65 192.52,66.87 187.35,67.61">
      <param key="origId" value="21_1"/>
    </lane>
  </edge>
  <edge id=":20_4" function="internal">
    <lane id=":20_4_0" index="0" disallow="pedestrian tram rail_urban rail rail_electric rail_fast ship" speed="7.64" length="12.59" width="4.00" shape="187.35,63.61 190.77,63.12 193.21,61.65 194.67,59.22 195.16,55.81">
      <param key="origId" value="26_-1"/>
    </lane>
  </edge>
  <edge id=":20_5" function="internal">
    <lane id=":20_5_0" index="0" disallow="pedestrian tram rail_urban rail rail_electric rail_fast ship" speed="9.24" length="19.04" width="4.00" shape="187.35,63.61 192.52,64.34 196.20,66.55 198.42,70.24 199.15,75.41">
      <param key="origId" value="29_-1"/>
    </lane>
  </edge>
  <edge id=":230_0" function="internal">
    <lane id=":230_0_0" index="0" disallow="pedestrian tram rail_urban rail rail_electric rail_fast ship" speed="13.89" length="19.60" width="4.00" shape="-2.00,124.80 -1.99,105.20">
      <param key="origId" value="239_1"/>
    </lane>
  </edge>
  <edge id=":230_1" function="internal">
    <lane id=":230_1_0" index="0" disallow="pedestrian tram rail_urban rail rail_electric rail_fast ship" speed="9.25" length="5.80" width="4.00" shape="-2.00,124.80 -1.26,119.65 -0.95,119.14">
      <param key="origId" value="255_-1"/>
    </lane>
  </edge>
  <edge id=":230_6" function="internal">
    <lane id=":230_6_0" index="0" disallow="pedestrian tram rail_urban rail rail_electric rail_fast ship" speed="9.25" length="13.23" width="4.00" shape="-0.95,119.14 0.96,115.96 4.65,113.75 9.81,113.01">
      <param key="origId" value="255_-1"/>
    </lane>
  </edge>
  <edge id=":230_2" function="internal">
    <lane id=":230_2_0" index="0" disallow="pedestrian tram rail_urban rail rail_electric rail_fast ship" speed="7.64" length="12.58" width="4.00" shape="9.81,117.01 6.40,117.50 3.96,118.96 2.49,121.39 2.00,124.81">
      <param key="origId" value="262_1"/>
    </lane>
  </edge>
  <edge id=":230_3" function="internal">
    <lane id=":230_3_0" index="0" disallow="pedestrian tram rail_urban rail rail_electric rail_fast ship" speed="9.24" length="19.04" width="4.00" shape="9.81,117.01 4.65,116.27 0.96,114.06 -1.25,110.37 -1.99,105.20">
      <param key="origId" value="254_-1"/>
    </lane>
  </edge>
  <edge id=":230_4" function="internal">
    <lane id=":230_4_0" index="0" disallow="pedestrian tram rail_urban rail rail_electric rail_fast ship" speed="7.64" length="12.58" width="4.00" shape="2.01,105.21 2.50,108.62 3.96,111.06 6.40,112.52 9.81,113.01">
      <param key="origId" value="250_-1"/>
    </lane>
  </edge>
  <edge id=":230_5" function="internal">
    <lane id=":230_5_0" index="0" disallow="pedestrian tram rail_urban rail rail_electric rail_fast ship" speed="13.89" length="19.60" width="4.00" shape="2.01,105.21 2.00,124.81">
      <param key="origId" value="240_-1"/>
    </lane>
  </edge>
  <edge id=":265_0" function="internal">
    <lane id=":265_0_0" index="0" disallow="pedestrian tram rail_urban rail rail_electric rail_fast ship" speed="13.89" length="19.60" width="4.00" shape="149.42,116.94 129.82,116.95">
      <param key="origId" value="274_1"/>
    </lane>
  </edge>
  <edge id=":265_1" function="internal">
    <lane id=":265_1_0" index="0" disallow="pedestrian tram rail_urban rail rail_electric rail_fast ship" speed="9.25" length="5.80" width="4.00" shape="149.42,116.94 144.26,116.21 143.75,115.90">
      <param key="origId" value="298_-1"/>
    </lane>
  </edge>
  <edge id=":265_6" function="internal">
    <lane id=":265_6_0" index="0" disallow="pedestrian tram rail_urban rail rail_electric rail_fast ship" speed="9.25" length="13.23" width="4.00" shape="143.75,115.90 140.57,114.00 138.35,110.31 137.61,105.14">
      <param key="origId" value="298_-1"/>
    </lane>
  </edge>
  <edge id=":265_2" function="internal">
    <lane id=":265_2_0" index="0" disallow="pedestrian tram rail_urban rail rail_electric rail_fast ship" speed="7.64" length="12.58" width="4.00" shape="141.61,105.14 142.10,108.56 143.56,110.99 146.00,112.46 149.41,112.94">
      <param key="origId" value="294_1"/>
    </lane>
  </edge>
  <edge id=":265_3" function="internal">
    <lane id=":265_3_0" index="0" disallow="pedestrian tram rail_urban rail rail_electric rail_fast ship" speed="9.24" length="19.04" width="4.00" shape="141.61,105.14 140.88,110.31 138.67,114.00 134.98,116.21 129.82,116.95">
      <param key="origId" value="288_1"/>
    </lane>
  </edge>
  <edge id=":265_4" function="internal">
    <lane id=":265_4_0" index="0" disallow="pedestrian tram rail_urban rail rail_electric rail_fast ship" speed="7.64" length="12.58" width="4.00" shape="129.81,112.95 133.23,112.46 135.66,111.00 137.13,108.56 137.61,105.14">
      <param key="origId" value="284_-1"/>
    </lane>
  </edge>
  <edge id=":265_5" function="internal">
    <lane id=":265_5_0" index="0" disallow="pedestrian tram rail_urban rail rail_electric rail_fast ship" speed="13.89" length="19.60" width="4.00" shape="129.81,112.95 149.41,112.94">
      <param key="origId" value="275_-1"/>
    </lane>
  </edge>
  <edge id=":55_0" function="internal">
    <lane id=":55_0_0" index="0" disallow="pedestrian tram rail_urban rail rail_electric rail_fast ship" speed="13.89" length="19.60" width="4.00" shape="47.31,75.48 47.32,55.88">
      <param key="origId" value="66_1"/>
    </lane>
  </edge>
  <edge id=":55_1" function="internal">
    <lane id=":55_1_0" index="0" disallow="pedestrian tram rail_urban rail rail_electric rail_fast ship" speed="9.25" length="5.80" width="4.00" shape="47.31,75.48 48.05,70.32 48.36,69.82">
      <param key="origId" value="83_-1"/>
    </lane>
  </edge>
  <edge id=":55_6" function="internal">
    <lane id=":55_6_0" index="0" disallow="pedestrian tram rail_urban rail rail_electric rail_fast ship" speed="9.25" length="13.23" width="4.00" shape="48.36,69.82 50.27,66.64 53.95,64.42 59.12,63.68">
      <param key="origId" value="83_-1"/>
    </lane>
  </edge>
  <edge id=":55_2" function="internal">
    <lane id=":55_2_0" index="0" disallow="pedestrian tram rail_urban rail rail_electric rail_fast ship" speed="7.64" length="12.58" width="4.00" shape="59.12,67.68 55.71,68.17 53.27,69.64 51.80,72.07 51.31,75.48">
      <param key="origId" value="79_1"/>
    </lane>
  </edge>
  <edge id=":55_3" function="internal">
    <lane id=":55_3_0" index="0" disallow="pedestrian tram rail_urban rail rail_electric rail_fast ship" speed="9.24" length="19.04" width="4.00" shape="59.12,67.68 53.96,66.95 50.27,64.74 48.05,61.05 47.32,55.88">
      <param key="origId" value="70_1"/>
    </lane>
  </edge>
  <edge id=":55_4" function="internal">
    <lane id=":55_4_0" index="0" disallow="pedestrian tram rail_urban rail rail_electric rail_fast ship" speed="7.64" length="12.58" width="4.00" shape="51.32,55.88 51.80,59.30 53.27,61.74 55.70,63.20 59.12,63.68">
      <param key="origId" value="74_-1"/>
    </lane>
  </edge>
  <edge id=":55_5" function="internal">
    <lane id=":55_5_0" index="0" disallow="pedestrian tram rail_urban rail rail_electric rail_fast ship" speed="13.89" length="19.60" width="4.00" shape="51.32,55.88 51.31,75.48">
      <param key="origId" value="67_-1"/>
    </lane>
  </edge>
  <edge id=":90_0" function="internal">
    <lane id=":90_0_0" index="0" disallow="pedestrian tram rail_urban rail rail_electric rail_fast ship" speed="7.64" length="12.58" width="4.00" shape="137.58,75.44 137.09,72.03 135.62,69.59 133.19,68.13 129.77,67.64">
      <param key="origId" value="124_-1"/>
    </lane>
  </edge>
  <edge id=":90_1" function="internal">
    <lane id=":90_1_0" index="0" disallow="pedestrian tram rail_urban rail rail_electric rail_fast ship" speed="9.24" length="19.04" width="4.00" shape="137.58,75.44 138.31,70.28 140.52,66.59 144.21,64.37 149.37,63.63">
      <param key="origId" value="91_1"/>
    </lane>
  </edge>
  <edge id=":90_2" function="internal">
    <lane id=":90_2_0" index="0" disallow="pedestrian tram rail_urban rail rail_electric rail_fast ship" speed="7.64" length="12.58" width="4.00" shape="149.37,67.63 145.96,68.12 143.52,69.58 142.06,72.02 141.58,75.44">
      <param key="origId" value="97_-1"/>
    </lane>
  </edge>
  <edge id=":90_3" function="internal">
    <lane id=":90_3_0" index="0" disallow="pedestrian tram rail_urban rail rail_electric rail_fast ship" speed="13.89" length="19.60" width="4.00" shape="149.37,67.63 129.77,67.64">
      <param key="origId" value="111_-1"/>
    </lane>
  </edge>
  <edge id=":90_4" function="internal">
    <lane id=":90_4_0" index="0" disallow="pedestrian tram rail_urban rail rail_electric rail_fast ship" speed="13.89" length="19.60" width="4.00" shape="129.77,63.64 149.37,63.63">
      <param key="origId" value="110_1"/>
    </lane>
  </edge>
  <edge id=":90_5" function="internal">
    <lane id=":90_5_0" index="0" disallow="pedestrian tram rail_urban rail rail_electric rail_fast ship" speed="9.25" length="5.80" width="4.00" shape="129.77,63.64 134.93,64.38 135.44,64.68">
      <param key="origId" value="119_1"/>
    </lane>
  </edge>
  <edge id=":90_6" function="internal">
    <lane id=":90_6_0" index="0" disallow="pedestrian tram rail_urban rail rail_electric rail_fast ship" speed="9.25" length="13.23" width="4.00" shape="135.44,64.68 138.62,66.59 140.84,70.27 141.58,75.44">
      <param key="origId" value="119_1"/>
    </lane>
  </edge>
  <edge id="-0" from="2.0" to="230" priority="1" type="sidewalk|shoulder|driving" shape="0.09,9.86 0.09,10.85 0.09,11.85 0.09,12.84 0.08,13.84 0.08,14.83 0.08,15.83 0.08,16.82 0.08,17.81 0.08,18.81 0.07,19.80 0.07,20.80 0.07,21.79 0.07,22.78 0.07,23.78 0.07,24.77 0.06,25.77 0.06,26.76 0.06,27.75 0.06,28.75 0.06,29.74 0.06,30.74 0.06,31.73 0.05,32.72 0.05,33.72 0.05,34.71 0.05,35.71 0.05,36.70 0.05,37.69 0.04,38.69 0.04,39.68 0.04,40.68 0.04,41.67 0.04,42.67 0.04,43.66 0.03,44.65 0.03,45.65 0.03,46.64 0.03,47.64 0.03,48.63 0.03,49.62 0.03,50.62 0.02,51.61 0.02,52.61 0.02,53.60 0.02,54.28 0.02,55.28 0.02,56.28 0.02,57.28 0.02,58.28 0.02,59.28 0.02,60.27 0.02,61.27 0.02,62.27 0.02,63.27 0.02,64.27 0.02,65.27 0.02,66.27 0.02,67.27 0.02,68.27 0.02,69.26 0.02,70.26 0.02,71.26 0.02,72.26 0.02,73.26 0.02,74.26 0.02,75.26 0.01,76.26 0.01,77.25 0.01,78.25 0.01,79.25 0.01,80.25 0.01,81.25 0.01,82.25 0.01,83.25 0.01,84.25 0.01,85.25 0.01,86.24 0.01,87.24 0.01,88.24 0.01,89.24 0.01,90.24 0.01,91.24 0.01,92.24 0.01,93.24 0.01,94.24 0.01,95.23 0.01,96.23 0.01,97.23 0.01,98.23 0.01,99.13 0.01,100.03 0.01,100.93 0.01,101.83 0.01,102.73 0.01,103.63 0.01,104.53 0.01,105.43 0.01,106.33">
    <lane id="-0_0" index="0" allow="pedestrian" speed="2.78" length="93.84" width="4.00" shape="6.39,11.37 6.39,11.86 6.39,12.85 6.38,13.85 6.38,14.84 6.38,15.84 6.38,16.83 6.38,17.82 6.38,18.82 6.37,19.81 6.37,20.81 6.37,21.80 6.37,22.79 6.37,23.79 6.37,24.78 6.36,25.78 6.36,26.77 6.36,27.76 6.36,28.76 6.36,29.75 6.36,30.75 6.36,31.74 6.35,32.73 6.35,33.73 6.35,34.72 6.35,35.72 6.35,36.71 6.35,37.70 6.34,38.70 6.34,39.69 6.34,40.69 6.34,41.68 6.34,42.68 6.34,43.67 6.33,44.66 6.33,45.66 6.33,46.65 6.33,47.65 6.33,48.64 6.33,49.63 6.33,50.63 6.32,51.62 6.32,52.62 6.32,53.61 6.32,54.28 6.32,55.28 6.32,56.28 6.32,57.28 6.32,58.28 6.32,59.28 6.32,60.28 6.32,61.27 6.32,62.27 6.32,63.27 6.32,64.27 6.32,65.27 6.32,66.27 6.32,67.27 6.32,68.27 6.32,69.27 6.32,70.26 6.32,71.26 6.32,72.26 6.32,73.26 6.32,74.26 6.32,75.26 6.31,76.26 6.31,77.26 6.31,78.26 6.31,79.25 6.31,80.25 6.31,81.25 6.31,82.25 6.31,83.25 6.31,84.25 6.31,85.25 6.31,86.25 6.31,87.24 6.31,88.24 6.31,89.24 6.31,90.24 6.31,91.24 6.31,92.24 6.31,93.24 6.31,94.24 6.31,95.24 6.31,96.23 6.31,97.23 6.31,98.23 6.31,99.13 6.31,100.03 6.31,100.93 6.31,101.83 6.31,102.73 6.31,103.63 6.31,104.53 6.31,105.21" type="sidewalk">
      <param key="origId" value="0_-3"/>
    </lane>
    <lane id="-0_1" index="1" disallow="all" speed="1.39" length="93.84" width="0.30" shape="4.24,11.37 4.24,11.86 4.24,12.85 4.23,13.84 4.23,14.84 4.23,15.83 4.23,16.83 4.23,17.82 4.23,18.81 4.22,19.81 4.22,20.80 4.22,21.80 4.22,22.79 4.22,23.78 4.22,24.78 4.21,25.77 4.21,26.77 4.21,27.76 4.21,28.75 4.21,29.75 4.21,30.74 4.21,31.74 4.20,32.73 4.20,33.73 4.20,34.72 4.20,35.71 4.20,36.71 4.20,37.70 4.19,38.70 4.19,39.69 4.19,40.68 4.19,41.68 4.19,42.67 4.19,43.67 4.18,44.66 4.18,45.65 4.18,46.65 4.18,47.64 4.18,48.64 4.18,49.63 4.18,50.62 4.17,51.62 4.17,52.61 4.17,53.61 4.17,54.28 4.17,55.28 4.17,56.28 4.17,57.28 4.17,58.28 4.17,59.28 4.17,60.28 4.17,61.27 4.17,62.27 4.17,63.27 4.17,64.27 4.17,65.27 4.17,66.27 4.17,67.27 4.17,68.27 4.17,69.26 4.17,70.26 4.17,71.26 4.17,72.26 4.17,73.26 4.17,74.26 4.17,75.26 4.16,76.26 4.16,77.26 4.16,78.25 4.16,79.25 4.16,80.25 4.16,81.25 4.16,82.25 4.16,83.25 4.16,84.25 4.16,85.25 4.16,86.25 4.16,87.24 4.16,88.24 4.16,89.24 4.16,90.24 4.16,91.24 4.16,92.24 4.16,93.24 4.16,94.24 4.16,95.24 4.16,96.23 4.16,97.23 4.16,98.23 4.16,99.13 4.16,100.03 4.16,100.93 4.16,101.83 4.16,102.73 4.16,103.63 4.16,104.53 4.16,105.21" type="shoulder">
      <param key="origId" value="0_-2"/>
    </lane>
    <lane id="-0_2" index="2" disallow="pedestrian tram rail_urban rail rail_electric rail_fast ship" speed="13.89" length="93.84" width="4.00" shape="2.09,11.36 2.09,11.85 2.09,12.85 2.08,13.84 2.08,14.83 2.08,15.83 2.08,16.82 2.08,17.82 2.08,18.81 2.07,19.80 2.07,20.80 2.07,21.79 2.07,22.79 2.07,23.78 2.07,24.78 2.06,25.77 2.06,26.76 2.06,27.76 2.06,28.75 2.06,29.75 2.06,30.74 2.06,31.73 2.05,32.73 2.05,33.72 2.05,34.72 2.05,35.71 2.05,36.70 2.05,37.70 2.04,38.69 2.04,39.69 2.04,40.68 2.04,41.67 2.04,42.67 2.04,43.66 2.03,44.66 2.03,45.65 2.03,46.64 2.03,47.64 2.03,48.63 2.03,49.63 2.03,50.62 2.02,51.62 2.02,52.61 2.02,53.60 2.02,54.28 2.02,55.28 2.02,56.28 2.02,57.28 2.02,58.28 2.02,59.28 2.02,60.27 2.02,61.27 2.02,62.27 2.02,63.27 2.02,64.27 2.02,65.27 2.02,66.27 2.02,67.27 2.02,68.27 2.02,69.26 2.02,70.26 2.02,71.26 2.02,72.26 2.02,73.26 2.02,74.26 2.02,75.26 2.01,76.26 2.01,77.26 2.01,78.25 2.01,79.25 2.01,80.25 2.01,81.25 2.01,82.25 2.01,83.25 2.01,84.25 2.01,85.25 2.01,86.24 2.01,87.24 2.01,88.24 2.01,89.24 2.01,90.24 2.01,91.24 2.01,92.24 2.01,93.24 2.01,94.24 2.01,95.23 2.01,96.23 2.01,97.23 2.01,98.23 2.01,99.13 2.01,100.03 2.01,100.93 2.01,101.83 2.01,102.73 2.01,103.63 2.01,104.53 2.01,105.21" type="driving">
      <param key="origId" value="0_-1"/>
    </lane>
  </edge>