<?xml version='1.0' encoding='UTF-8'?>
<!-- generated on 2024-04-24 14:06:36 by Eclipse SUMO netconvert Version 1.14.1
<configuration xmlns:xsi="http://www.w3.org/2001/XMLSchema-instance" xsi:noNamespaceSchemaLocation="http://sumo.dlr.de/xsd/netconvertConfiguration.xsd">

    <input>
        <type-files value="C:\Users\phill\Documents\URAP%20-%20CARLA\Sumo%20Data%20Collection\CARLA%20OpenDrive%20Maps/opendrive_netconvert.typ.xml"/>
        <opendrive-files value="CARLA%20OpenDrive%20Maps/Town06.xodr"/>
    </input>

    <output>
        <output-file value="C:\Users\phill\AppData\Local\Temp\tmpcj25inw7\Town06.net.xml"/>
        <output.original-names value="true"/>
    </output>

    <processing>
        <geometry.remove value="true"/>
        <geometry.min-radius.fix value="true"/>
    </processing>

    <tls_building>
        <tls.discard-loaded value="true"/>
    </tls_building>

    <formats>
        <opendrive.import-all-lanes value="true"/>
        <opendrive.curve-resolution value="1"/>
    </formats>

</configuration>
-->
<net xmlns:xsi="http://www.w3.org/2001/XMLSchema-instance" version="1.9" junctionCornerDetail="5" rectangularLaneCut="true" limitTurnSpeed="5.50" xsi:noNamespaceSchemaLocation="http://sumo.dlr.de/xsd/net_file.xsd">
  <location netOffset="357.36,403.33" convBoundary="0.00,0.00,1020.42,545.84" origBoundary="-368.99,-411.46,670.40,150.64" projParameter="!"/>
  <type id="bidirectional" priority="1" speed="1.39" disallow="pedestrian tram rail_urban rail rail_electric rail_fast ship" width="3.65"/>
  <type id="biking" priority="-1" speed="5.56" allow="bicycle" width="1.50"/>
  <type id="border" priority="0" speed="1.39" disallow="all" discard="1" width="0.10"/>
  <type id="driving" priority="1" speed="13.89" disallow="pedestrian tram rail_urban rail rail_electric rail_fast ship" width="3.65"/>
  <type id="entry" priority="1" speed="22.22" disallow="pedestrian tram rail_urban rail rail_electric rail_fast ship" width="3.65"/>
  <type id="exit" priority="1" speed="22.22" disallow="pedestrian tram rail_urban rail rail_electric rail_fast ship" width="3.65"/>
  <type id="median" priority="0" speed="1.39" disallow="all" discard="1" width="0.10"/>
  <type id="mwyEntry" priority="1" speed="22.22" allow="private emergency authority army vip passenger hov taxi bus coach delivery truck trailer motorcycle evehicle custom1 custom2" width="3.65"/>
  <type id="mwyExit" priority="1" speed="22.22" allow="private emergency authority army vip passenger hov taxi bus coach delivery truck trailer motorcycle evehicle custom1 custom2" width="3.65"/>
  <type id="none" priority="0" speed="1.39" disallow="all" discard="1" width="1.00"/>
  <type id="offRamp" priority="1" speed="22.22" allow="private emergency authority army vip passenger hov taxi bus coach delivery truck trailer motorcycle evehicle custom1 custom2" width="3.65"/>
  <type id="onRamp" priority="1" speed="22.22" allow="private emergency authority army vip passenger hov taxi bus coach delivery truck trailer motorcycle evehicle custom1 custom2" width="3.65"/>
  <type id="parking" priority="1" speed="1.39" disallow="pedestrian tram rail_urban rail rail_electric rail_fast ship" width="2.50"/>
  <type id="rail" priority="3" speed="33.33" allow="rail_urban rail rail_electric rail_fast" width="3.65"/>
  <type id="restricted" priority="0" speed="13.89" disallow="all" width="3.65"/>
  <type id="roadWorks" priority="0" speed="1.39" allow="authority" width="3.65"/>
  <type id="shoulder" priority="0" speed="1.39" disallow="all" discard="1" width="1.00"/>
  <type id="sidewalk" priority="-2" speed="2.78" allow="pedestrian" width="2.50"/>
  <type id="special1" priority="1" speed="22.22" allow="custom1" discard="1" width="3.65"/>
  <type id="special2" priority="1" speed="22.22" allow="custom2" discard="1" width="3.65"/>
  <type id="special3" priority="1" speed="22.22" allow="custom1 custom2" discard="1" width="3.65"/>
  <type id="stop" priority="1" speed="13.89" disallow="pedestrian tram rail_urban rail rail_electric rail_fast ship" width="3.65"/>
  <type id="tram" priority="2" speed="13.89" allow="tram" width="3.65"/>
  <edge id=":15#1_0" function="internal">
    <lane id=":15#1_0_0" index="0" disallow="all" speed="1.39" length="3.64" width="0.63" shape="400.94,348.39 404.37,346.39"/>
    <lane id=":15#1_0_1" index="1" disallow="all" speed="1.39" length="3.64" width="0.50" shape="400.85,348.95 404.27,346.95"/>
    <lane id=":15#1_0_2" index="2" disallow="pedestrian tram rail_urban rail rail_electric rail_fast ship" speed="13.89" length="3.64" width="3.50" shape="400.53,350.92 403.94,348.93"/>
    <lane id=":15#1_0_3" index="3" disallow="pedestrian tram rail_urban rail rail_electric rail_fast ship" speed="13.89" length="3.64" width="3.50" shape="399.97,354.38 403.35,352.38"/>
    <lane id=":15#1_0_4" index="4" disallow="pedestrian tram rail_urban rail rail_electric rail_fast ship" speed="13.89" length="3.64" width="3.50" shape="399.41,357.83 402.77,355.83"/>
    <lane id=":15#1_0_5" index="5" disallow="pedestrian tram rail_urban rail rail_electric rail_fast ship" speed="13.89" length="3.64" width="3.50" shape="398.86,361.29 402.19,359.28"/>
    <lane id=":15#1_0_6" index="6" allow="emergency authority" speed="13.89" length="3.64" width="4.18" shape="398.45,363.83 399.37,363.78 400.00,363.45 400.62,363.11 401.55,363.07"/>
    <lane id=":15#1_0_7" index="7" disallow="all" speed="1.39" length="3.64" width="0.50" shape="398.27,364.90 401.16,365.38"/>
    <lane id=":15#1_0_8" index="8" disallow="all" speed="1.39" length="3.64" width="0.63" shape="398.18,365.46 401.06,365.94"/>
  </edge>
  <edge id=":15.14_0" function="internal">
    <lane id=":15.14_0_0" index="0" disallow="all" speed="1.39" length="8.55" width="0.63" shape="379.65,348.38 382.30,348.12 384.09,347.54 385.88,347.02 388.53,346.89"/>
    <lane id=":15.14_0_1" index="1" disallow="all" speed="1.39" length="8.55" width="0.50" shape="379.65,348.95 382.29,348.68 384.07,348.11 385.85,347.58 388.49,347.46"/>
    <lane id=":15.14_0_2" index="2" disallow="pedestrian tram rail_urban rail rail_electric rail_fast ship" speed="13.89" length="8.55" width="3.50" shape="379.65,350.95 382.26,350.68 384.01,350.11 385.77,349.58 388.38,349.46"/>
    <lane id=":15.14_0_3" index="3" disallow="pedestrian tram rail_urban rail rail_electric rail_fast ship" speed="13.89" length="8.55" width="3.50" shape="379.64,354.45 382.20,354.18 383.91,353.61 385.63,353.08 388.17,352.95"/>
    <lane id=":15.14_0_4" index="4" disallow="pedestrian tram rail_urban rail rail_electric rail_fast ship" speed="13.89" length="8.55" width="3.50" shape="379.64,357.95 382.13,357.68 383.81,357.11 385.48,356.58 387.97,356.45"/>
    <lane id=":15.14_0_5" index="5" disallow="pedestrian tram rail_urban rail rail_electric rail_fast ship" speed="13.89" length="8.55" width="3.50" shape="379.64,361.45 382.07,361.18 383.70,360.61 385.34,360.07 387.77,359.94"/>
    <lane id=":15.14_0_6" index="6" disallow="all" speed="1.39" length="8.55" width="0.50" shape="379.64,363.45 387.55,363.59"/>
    <lane id=":15.14_0_7" index="7" disallow="all" speed="1.39" length="8.55" width="0.63" shape="379.64,364.02 387.52,364.16"/>
  </edge>
  <edge id=":17.16_0" function="internal">
    <lane id=":17.16_0_0" index="0" disallow="all" speed="1.39" length="8.17" width="0.63" shape="490.95,349.27 494.24,347.75 496.80,347.64 499.55,348.15 503.37,348.50"/>
    <lane id=":17.16_0_1" index="1" disallow="all" speed="1.39" length="8.17" width="0.50" shape="491.25,349.75 494.46,348.28 496.96,348.20 499.64,348.72 503.37,349.07"/>
    <lane id=":17.16_0_2" index="2" disallow="pedestrian tram rail_urban rail rail_electric rail_fast ship" speed="13.89" length="8.17" width="3.50" shape="492.31,351.44 495.24,350.15 497.52,350.15 499.97,350.71 503.37,351.07"/>
    <lane id=":17.16_0_3" index="3" disallow="pedestrian tram rail_urban rail rail_electric rail_fast ship" speed="13.42" length="8.17" width="3.50" shape="494.17,354.41 496.60,353.41 498.50,353.57 500.53,354.20 503.36,354.57"/>
    <lane id=":17.16_0_4" index="4" disallow="pedestrian tram rail_urban rail rail_electric rail_fast ship" speed="12.09" length="8.17" width="3.50" shape="496.03,357.38 497.97,356.66 499.48,356.99 501.10,357.68 503.36,358.07"/>
    <lane id=":17.16_0_5" index="5" disallow="pedestrian tram rail_urban rail rail_electric rail_fast ship" speed="10.67" length="8.17" width="3.50" shape="497.88,360.34 499.35,359.91 500.46,360.40 501.65,361.17 503.36,361.57"/>
    <lane id=":17.16_0_6" index="6" disallow="all" speed="1.39" length="8.17" width="0.50" shape="500.80,365.01 503.35,363.57"/>
    <lane id=":17.16_0_7" index="7" disallow="all" speed="1.39" length="8.17" width="0.63" shape="501.10,365.49 503.35,364.14"/>
  </edge>
  <edge id=":196_0" function="internal">
    <lane id=":196_0_0" index="0" disallow="pedestrian tram rail_urban rail rail_electric rail_fast ship" speed="13.89" length="27.09" width="3.50" shape="1029.95,346.63 1029.39,355.02 1028.74,360.75 1027.62,366.41 1025.64,374.58">
      <param key="origId" value="202_7"/>
    </lane>
    <lane id=":196_0_1" index="1" disallow="pedestrian tram rail_urban rail rail_electric rail_fast ship" speed="13.89" length="27.09" width="3.50" shape="1026.46,346.42 1025.91,354.62 1025.27,360.22 1024.18,365.75 1022.24,373.75">
      <param key="origId" value="202_6"/>
    </lane>
    <lane id=":196_0_2" index="2" disallow="pedestrian tram rail_urban rail rail_electric rail_fast ship" speed="13.89" length="27.09" width="3.50" shape="1022.97,346.21 1022.43,354.22 1021.81,359.70 1020.73,365.10 1018.84,372.91">
      <param key="origId" value="202_5"/>
    </lane>
    <lane id=":196_0_3" index="3" disallow="pedestrian tram rail_urban rail rail_electric rail_fast ship" speed="13.89" length="27.09" width="3.50" shape="1019.47,346.00 1018.95,353.82 1018.34,359.17 1017.29,364.44 1015.44,372.07">
      <param key="origId" value="202_4"/>
    </lane>
    <lane id=":196_0_4" index="4" disallow="pedestrian tram rail_urban rail rail_electric rail_fast ship" speed="13.89" length="27.09" width="3.50" shape="1015.98,345.78 1015.47,353.42 1014.87,358.64 1013.85,363.79 1012.04,371.23">
      <param key="origId" value="202_3"/>
    </lane>
  </edge>
  <edge id=":196_5" function="internal">
    <lane id=":196_5_0" index="0" disallow="pedestrian tram rail_urban rail rail_electric rail_fast ship" speed="11.59" length="6.54" width="3.50" shape="1007.27,351.17 1013.74,352.04">
      <param key="origId" value="200_-1"/>
    </lane>
    <lane id=":196_5_1" index="1" disallow="pedestrian tram rail_urban rail rail_electric rail_fast ship" speed="10.46" length="6.23" width="3.50" shape="1007.26,354.67 1013.44,355.56">
      <param key="origId" value="199_-1"/>
    </lane>
    <lane id=":196_5_2" index="2" disallow="pedestrian tram rail_urban rail rail_electric rail_fast ship" speed="9.26" length="5.77" width="3.50" shape="1007.26,358.17 1012.97,358.99">
      <param key="origId" value="198_-1"/>
    </lane>
    <lane id=":196_5_3" index="3" disallow="pedestrian tram rail_urban rail rail_electric rail_fast ship" speed="7.87" length="5.13" width="3.50" shape="1007.26,361.67 1011.80,362.32 1012.25,362.63">
      <param key="origId" value="197_-1"/>
    </lane>
    <lane id=":196_5_4" index="4" disallow="pedestrian tram rail_urban rail rail_electric rail_fast ship" speed="6.18" length="4.53" width="3.50" shape="1007.26,365.17 1009.91,365.55 1011.45,366.59">
      <param key="origId" value="201_-1"/>
    </lane>
  </edge>
  <edge id=":196_10" function="internal">
    <lane id=":196_10_0" index="0" disallow="pedestrian tram rail_urban rail rail_electric rail_fast ship" speed="11.59" length="29.96" width="3.50" shape="1013.74,352.04 1017.67,352.57 1024.14,356.86 1026.76,364.15 1025.64,374.58">
      <param key="origId" value="200_-1"/>
    </lane>
  </edge>
  <edge id=":196_11" function="internal">
    <lane id=":196_11_0" index="0" disallow="pedestrian tram rail_urban rail rail_electric rail_fast ship" speed="10.46" length="23.28" width="3.50" shape="1013.44,355.56 1015.58,355.87 1020.84,359.44 1023.06,365.40 1022.24,373.75">
      <param key="origId" value="199_-1"/>
    </lane>
  </edge>
  <edge id=":196_12" function="internal">
    <lane id=":196_12_0" index="0" disallow="pedestrian tram rail_urban rail rail_electric rail_fast ship" speed="9.26" length="17.04" width="3.50" shape="1012.97,358.99 1013.69,359.09 1017.76,361.86 1019.48,366.46 1018.84,372.91">
      <param key="origId" value="198_-1"/>
    </lane>
  </edge>
  <edge id=":196_13" function="internal">
    <lane id=":196_13_0" index="0" disallow="pedestrian tram rail_urban rail rail_electric rail_fast ship" speed="7.87" length="10.97" width="3.50" shape="1012.25,362.63 1014.68,364.27 1015.89,367.52 1015.44,372.07">
      <param key="origId" value="197_-1"/>
    </lane>
  </edge>
  <edge id=":196_14" function="internal">
    <lane id=":196_14_0" index="0" disallow="pedestrian tram rail_urban rail rail_electric rail_fast ship" speed="6.18" length="4.87" width="3.50" shape="1011.45,366.59 1011.59,366.69 1012.30,368.58 1012.04,371.23">
      <param key="origId" value="201_-1"/>
    </lane>
  </edge>
  <edge id=":208_0" function="internal">
    <lane id=":208_0_0" index="0" disallow="pedestrian tram rail_urban rail rail_electric rail_fast ship" speed="13.89" length="21.27" width="3.50" shape="888.35,345.77 893.69,349.00 897.74,350.57 902.11,351.08 908.40,351.12">
      <param key="origId" value="210_-1"/>
    </lane>
  </edge>
  <edge id=":208_1" function="internal">
    <lane id=":208_1_0" index="0" disallow="pedestrian tram rail_urban rail rail_electric rail_fast ship" speed="13.89" length="21.36" width="3.50" shape="887.04,351.11 908.40,351.12">
      <param key="origId" value="213_-7"/>
    </lane>
    <lane id=":208_1_1" index="1" disallow="pedestrian tram rail_urban rail rail_electric rail_fast ship" speed="13.89" length="21.36" width="3.50" shape="887.03,354.61 908.39,354.62">
      <param key="origId" value="213_-6"/>
    </lane>
    <lane id=":208_1_2" index="2" disallow="pedestrian tram rail_urban rail rail_electric rail_fast ship" speed="13.89" length="21.36" width="3.50" shape="887.03,358.11 908.39,358.12">
      <param key="origId" value="213_-5"/>
    </lane>
    <lane id=":208_1_3" index="3" disallow="pedestrian tram rail_urban rail rail_electric rail_fast ship" speed="13.89" length="21.36" width="3.50" shape="887.03,361.61 908.39,361.62">
      <param key="origId" value="213_-4"/>
    </lane>
    <lane id=":208_1_4" index="4" disallow="pedestrian tram rail_urban rail rail_electric rail_fast ship" speed="13.89" length="21.36" width="3.50" shape="887.03,365.11 908.39,365.12">
      <param key="origId" value="213_-3"/>
    </lane>
  </edge>
  <edge id=":218_0" function="internal">
    <lane id=":218_0_0" index="0" disallow="pedestrian tram rail_urban rail rail_electric rail_fast ship" speed="13.89" length="25.45" width="3.50" shape="1029.27,244.82 1029.54,270.26">
      <param key="origId" value="219_7"/>
    </lane>
    <lane id=":218_0_1" index="1" disallow="pedestrian tram rail_urban rail rail_electric rail_fast ship" speed="13.89" length="25.45" width="3.50" shape="1025.77,244.86 1026.04,270.30">
      <param key="origId" value="219_6"/>
    </lane>
    <lane id=":218_0_2" index="2" disallow="pedestrian tram rail_urban rail rail_electric rail_fast ship" speed="13.89" length="25.45" width="3.50" shape="1022.27,244.89 1022.54,270.34">
      <param key="origId" value="219_5"/>
    </lane>
    <lane id=":218_0_3" index="3" disallow="pedestrian tram rail_urban rail rail_electric rail_fast ship" speed="13.89" length="25.45" width="3.50" shape="1018.77,244.93 1019.04,270.38">
      <param key="origId" value="219_4"/>
    </lane>
    <lane id=":218_0_4" index="4" disallow="pedestrian tram rail_urban rail rail_electric rail_fast ship" speed="13.89" length="25.45" width="3.50" shape="1015.27,244.97 1015.54,270.41">
      <param key="origId" value="219_3"/>
    </lane>
  </edge>
  <edge id=":218_5" function="internal">
    <lane id=":218_5_0" index="0" disallow="pedestrian tram rail_urban rail rail_electric rail_fast ship" speed="11.79" length="3.89" width="3.50" shape="1009.59,250.73 1013.45,251.26">
      <param key="origId" value="229_-1"/>
    </lane>
    <lane id=":218_5_1" index="1" disallow="pedestrian tram rail_urban rail rail_electric rail_fast ship" speed="10.74" length="3.92" width="3.50" shape="1009.61,254.23 1013.49,254.76">
      <param key="origId" value="226_-1"/>
    </lane>
    <lane id=":218_5_2" index="2" disallow="pedestrian tram rail_urban rail rail_electric rail_fast ship" speed="9.57" length="3.94" width="3.50" shape="1009.62,257.73 1013.53,258.26">
      <param key="origId" value="227_-1"/>
    </lane>
    <lane id=":218_5_3" index="3" disallow="pedestrian tram rail_urban rail rail_electric rail_fast ship" speed="8.24" length="3.97" width="3.50" shape="1009.64,261.23 1013.57,261.76">
      <param key="origId" value="225_-1"/>
    </lane>
    <lane id=":218_5_4" index="4" disallow="pedestrian tram rail_urban rail rail_electric rail_fast ship" speed="6.65" length="4.18" width="3.50" shape="1009.65,264.73 1012.21,265.07 1013.59,265.88">
      <param key="origId" value="228_-1"/>
    </lane>
  </edge>
  <edge id=":218_10" function="internal">
    <lane id=":218_10_0" index="0" disallow="pedestrian tram rail_urban rail rail_electric rail_fast ship" speed="11.79" length="27.90" width="3.50" shape="1013.45,251.26 1018.24,251.92 1024.45,255.57 1028.22,261.69 1029.54,270.26">
      <param key="origId" value="229_-1"/>
    </lane>
  </edge>
  <edge id=":218_11" function="internal">
    <lane id=":218_11_0" index="0" disallow="pedestrian tram rail_urban rail rail_electric rail_fast ship" speed="10.74" length="22.26" width="3.50" shape="1013.49,254.76 1016.73,255.21 1021.85,258.21 1024.95,263.24 1026.04,270.30">
      <param key="origId" value="226_-1"/>
    </lane>
  </edge>
  <edge id=":218_12" function="internal">
    <lane id=":218_12_0" index="0" disallow="pedestrian tram rail_urban rail rail_electric rail_fast ship" speed="9.57" length="16.62" width="3.50" shape="1013.53,258.26 1015.22,258.50 1019.24,260.85 1021.68,264.80 1022.54,270.34">
      <param key="origId" value="227_-1"/>
    </lane>
  </edge>
  <edge id=":218_13" function="internal">
    <lane id=":218_13_0" index="0" disallow="pedestrian tram rail_urban rail rail_electric rail_fast ship" speed="8.24" length="10.97" width="3.50" shape="1013.57,261.76 1013.71,261.78 1016.64,263.50 1018.42,266.36 1019.04,270.38">
      <param key="origId" value="225_-1"/>
    </lane>
  </edge>
  <edge id=":218_14" function="internal">
    <lane id=":218_14_0" index="0" disallow="pedestrian tram rail_urban rail rail_electric rail_fast ship" speed="6.65" length="5.15" width="3.50" shape="1013.59,265.88 1014.04,266.14 1015.15,267.92 1015.54,270.41">
      <param key="origId" value="228_-1"/>
    </lane>
  </edge>
  <edge id=":22.21_0" function="internal">
    <lane id=":22.21_0_0" index="0" disallow="all" speed="1.39" length="3.01" width="0.63" shape="141.33,270.76 138.33,270.77"/>
    <lane id=":22.21_0_1" index="1" disallow="all" speed="1.39" length="3.01" width="0.50" shape="141.32,270.20 138.32,270.20"/>
    <lane id=":22.21_0_2" index="2" disallow="pedestrian tram rail_urban rail rail_electric rail_fast ship" speed="13.89" length="3.01" width="3.50" shape="141.32,268.20 138.32,268.20"/>
    <lane id=":22.21_0_3" index="3" disallow="pedestrian tram rail_urban rail rail_electric rail_fast ship" speed="13.89" length="3.01" width="3.50" shape="141.31,264.70 138.31,264.70"/>
    <lane id=":22.21_0_4" index="4" disallow="pedestrian tram rail_urban rail rail_electric rail_fast ship" speed="13.89" length="3.01" width="3.50" shape="141.30,261.20 138.30,261.20"/>
    <lane id=":22.21_0_5" index="5" disallow="pedestrian tram rail_urban rail rail_electric rail_fast ship" speed="13.89" length="3.01" width="3.50" shape="141.30,257.70 138.30,257.70"/>
    <lane id=":22.21_0_6" index="6" disallow="all" speed="1.39" length="3.01" width="0.50" shape="141.29,255.63 138.29,255.70"/>
    <lane id=":22.21_0_7" index="7" disallow="all" speed="1.39" length="3.01" width="0.63" shape="141.29,255.63 140.39,255.55 139.79,255.38 139.19,255.21 138.29,255.14"/>
  </edge>
  <edge id=":230_0" function="internal">
    <lane id=":230_0_0" index="0" disallow="pedestrian tram rail_urban rail rail_electric rail_fast ship" speed="13.89" length="9.33" width="3.50" shape="151.01,268.17 141.68,268.20">
      <param key="origId" value="234_7"/>
    </lane>
    <lane id=":230_0_1" index="1" disallow="pedestrian tram rail_urban rail rail_electric rail_fast ship" speed="13.89" length="9.33" width="3.50" shape="151.00,264.67 141.67,264.70">
      <param key="origId" value="234_6"/>
    </lane>
    <lane id=":230_0_2" index="2" disallow="pedestrian tram rail_urban rail rail_electric rail_fast ship" speed="13.89" length="9.33" width="3.50" shape="150.99,261.17 141.66,261.20">
      <param key="origId" value="234_5"/>
    </lane>
    <lane id=":230_0_3" index="3" disallow="pedestrian tram rail_urban rail rail_electric rail_fast ship" speed="13.89" length="9.33" width="3.50" shape="150.98,257.67 141.65,257.70">
      <param key="origId" value="234_4"/>
    </lane>
  </edge>
  <edge id=":230_4" function="internal">
    <lane id=":230_4_0" index="0" disallow="pedestrian tram rail_urban rail rail_electric rail_fast ship" speed="13.89" length="9.03" width="3.01" shape="150.98,254.17 148.30,254.15 146.47,254.02 144.66,253.72 142.03,253.20">
      <param key="origId" value="231_3"/>
    </lane>
  </edge>
  <edge id=":241_0" function="internal">
    <lane id=":241_0_0" index="0" disallow="pedestrian tram rail_urban rail rail_electric rail_fast ship" speed="13.89" length="16.20" width="3.50" shape="228.12,425.80 211.92,425.74">
      <param key="origId" value="252_-7"/>
    </lane>
    <lane id=":241_0_1" index="1" disallow="pedestrian tram rail_urban rail rail_electric rail_fast ship" speed="13.89" length="16.20" width="3.50" shape="228.13,422.30 211.93,422.24">
      <param key="origId" value="252_-6"/>
    </lane>
    <lane id=":241_0_2" index="2" disallow="pedestrian tram rail_urban rail rail_electric rail_fast ship" speed="13.89" length="16.20" width="3.50" shape="228.14,418.80 211.95,418.74">
      <param key="origId" value="252_-5"/>
    </lane>
    <lane id=":241_0_3" index="3" disallow="pedestrian tram rail_urban rail rail_electric rail_fast ship" speed="13.89" length="16.20" width="3.50" shape="228.15,415.30 211.96,415.24">
      <param key="origId" value="252_-4"/>
    </lane>
  </edge>
  <edge id=":241_4" function="internal">
    <lane id=":241_4_0" index="0" disallow="pedestrian tram rail_urban rail rail_electric rail_fast ship" speed="13.42" length="17.05" width="3.50" shape="228.17,411.80 221.97,411.60 217.14,411.04 213.69,410.14 211.62,408.89">
      <param key="origId" value="242_-1"/>
    </lane>
    <lane id=":241_4_1" index="1" disallow="pedestrian tram rail_urban rail rail_electric rail_fast ship" speed="12.79" length="15.43" width="3.50" shape="228.17,411.80 223.96,411.45 220.22,410.44 216.94,408.77 214.13,406.45">
      <param key="origId" value="243_-3"/>
    </lane>
  </edge>
  <edge id=":25#1_0" function="internal">
    <lane id=":25#1_0_0" index="0" disallow="all" speed="1.39" length="3.38" width="0.63" shape="309.71,270.47 308.73,270.65 308.14,271.18 307.54,271.72 306.57,271.90"/>
    <lane id=":25#1_0_1" index="1" disallow="all" speed="1.39" length="3.38" width="0.50" shape="309.76,269.90 308.78,270.08 308.19,270.62 307.59,271.15 306.62,271.34"/>
    <lane id=":25#1_0_2" index="2" disallow="pedestrian tram rail_urban rail rail_electric rail_fast ship" speed="13.89" length="3.38" width="3.50" shape="309.93,267.91 308.96,268.09 308.36,268.63 307.77,269.16 306.79,269.34"/>
    <lane id=":25#1_0_3" index="3" disallow="pedestrian tram rail_urban rail rail_electric rail_fast ship" speed="13.89" length="3.38" width="3.50" shape="310.23,264.42 309.26,264.60 308.66,265.14 308.07,265.67 307.09,265.86"/>
    <lane id=":25#1_0_4" index="4" disallow="pedestrian tram rail_urban rail rail_electric rail_fast ship" speed="13.89" length="3.38" width="3.50" shape="310.53,260.93 309.56,261.12 308.96,261.65 308.37,262.19 307.40,262.37"/>
    <lane id=":25#1_0_5" index="5" allow="emergency authority" speed="13.89" length="3.38" width="3.50" shape="310.76,258.29 309.85,258.35 309.23,258.59 308.61,258.83 307.70,258.88"/>
    <lane id=":25#1_0_6" index="6" disallow="all" speed="1.39" length="3.38" width="0.50" shape="310.86,257.15 307.87,256.89"/>
    <lane id=":25#1_0_7" index="7" disallow="all" speed="1.39" length="3.38" width="0.63" shape="310.91,256.58 307.92,256.33"/>
  </edge>
  <edge id=":25.24_0" function="internal">
    <lane id=":25.24_0_0" index="0" disallow="all" speed="1.39" length="2.74" width="0.63" shape="252.14,270.50 249.41,270.51"/>
    <lane id=":25.24_0_1" index="1" disallow="all" speed="1.39" length="2.74" width="0.50" shape="252.14,269.94 249.41,269.94"/>
    <lane id=":25.24_0_2" index="2" disallow="pedestrian tram rail_urban rail rail_electric rail_fast ship" speed="13.89" length="2.74" width="3.50" shape="252.14,267.94 249.40,267.94"/>
    <lane id=":25.24_0_3" index="3" disallow="pedestrian tram rail_urban rail rail_electric rail_fast ship" speed="13.89" length="2.74" width="3.50" shape="252.13,264.44 249.39,264.44"/>
    <lane id=":25.24_0_4" index="4" disallow="pedestrian tram rail_urban rail rail_electric rail_fast ship" speed="13.89" length="2.74" width="3.50" shape="252.12,260.94 249.38,260.94"/>
    <lane id=":25.24_0_5" index="5" disallow="pedestrian tram rail_urban rail rail_electric rail_fast ship" speed="13.89" length="2.74" width="3.50" shape="252.11,257.44 249.38,257.44"/>
    <lane id=":25.24_0_6" index="6" disallow="all" speed="1.39" length="2.74" width="0.63" shape="252.10,254.87 251.29,254.95 250.74,255.12 250.19,255.30 249.37,255.38"/>
  </edge>
  <edge id=":26.25_0" function="internal">
    <lane id=":26.25_0_0" index="0" disallow="all" speed="1.39" length="7.81" width="0.63" shape="332.94,270.31 330.47,270.60 328.81,271.18 327.15,271.69 324.69,271.76"/>
    <lane id=":26.25_0_1" index="1" disallow="all" speed="1.39" length="7.81" width="0.50" shape="332.94,269.75 330.48,270.03 328.83,270.61 327.19,271.12 324.74,271.20"/>
    <lane id=":26.25_0_2" index="2" disallow="pedestrian tram rail_urban rail rail_electric rail_fast ship" speed="13.89" length="7.81" width="3.50" shape="332.93,267.75 330.53,268.03 328.92,268.61 327.31,269.13 324.91,269.21"/>
    <lane id=":26.25_0_3" index="3" disallow="pedestrian tram rail_urban rail rail_electric rail_fast ship" speed="13.89" length="7.81" width="3.50" shape="332.92,264.25 330.61,264.53 329.07,265.11 327.52,265.63 325.22,265.72"/>
    <lane id=":26.25_0_4" index="4" disallow="pedestrian tram rail_urban rail rail_electric rail_fast ship" speed="13.89" length="7.81" width="3.50" shape="332.92,260.75 330.70,261.03 329.21,261.61 327.73,262.14 325.52,262.23"/>
    <lane id=":26.25_0_5" index="5" disallow="all" speed="1.39" length="7.81" width="0.50" shape="332.91,258.75 330.81,258.75 329.37,258.71 327.94,258.62 325.85,258.45"/>
    <lane id=":26.25_0_6" index="6" disallow="all" speed="1.39" length="7.81" width="0.63" shape="332.91,258.18 330.83,258.18 329.40,258.15 327.97,258.06 325.90,257.88"/>
  </edge>
  <edge id=":262_0" function="internal">
    <lane id=":262_0_0" index="0" disallow="pedestrian tram rail_urban rail rail_electric rail_fast ship" speed="13.89" length="42.51" width="3.50" shape="235.13,152.92 277.64,153.06">
      <param key="origId" value="264_-7"/>
    </lane>
    <lane id=":262_0_1" index="1" disallow="pedestrian tram rail_urban rail rail_electric rail_fast ship" speed="13.89" length="42.51" width="3.50" shape="235.12,156.42 277.63,156.56">
      <param key="origId" value="264_-6"/>
    </lane>
    <lane id=":262_0_2" index="2" disallow="pedestrian tram rail_urban rail rail_electric rail_fast ship" speed="13.89" length="42.51" width="3.50" shape="235.11,159.92 277.61,160.06">
      <param key="origId" value="264_-5"/>
    </lane>
    <lane id=":262_0_3" index="3" disallow="pedestrian tram rail_urban rail rail_electric rail_fast ship" speed="13.89" length="42.51" width="3.50" shape="235.09,163.42 277.60,163.56">
      <param key="origId" value="264_-4"/>
    </lane>
  </edge>
  <edge id=":262_4" function="internal">
    <lane id=":262_4_0" index="0" disallow="pedestrian tram rail_urban rail rail_electric rail_fast ship" speed="13.89" length="40.37" width="3.50" shape="235.08,166.92 247.09,166.70 255.73,167.17 263.32,170.17 272.20,177.54">
      <param key="origId" value="270_-3"/>
    </lane>
  </edge>
  <edge id=":273_0" function="internal">
    <lane id=":273_0_0" index="0" disallow="pedestrian tram rail_urban rail rail_electric rail_fast ship" speed="13.89" length="75.22" width="3.50" shape="375.87,253.32 451.09,253.02">
      <param key="origId" value="275_-7"/>
    </lane>
    <lane id=":273_0_1" index="1" disallow="pedestrian tram rail_urban rail rail_electric rail_fast ship" speed="13.89" length="75.22" width="3.50" shape="375.88,256.82 451.10,256.52">
      <param key="origId" value="275_-6"/>
    </lane>
    <lane id=":273_0_2" index="2" disallow="pedestrian tram rail_urban rail rail_electric rail_fast ship" speed="13.89" length="75.22" width="3.50" shape="375.89,260.32 451.12,260.02">
      <param key="origId" value="275_-5"/>
    </lane>
    <lane id=":273_0_3" index="3" disallow="pedestrian tram rail_urban rail rail_electric rail_fast ship" speed="13.89" length="75.22" width="3.50" shape="375.91,263.82 451.13,263.52">
      <param key="origId" value="275_-4"/>
    </lane>