<?xml version="1.0" encoding="UTF-8"?>

<!-- generated on 2024-04-24 00:08:11 by Eclipse SUMO netedit Version 1.14.1
<configuration xmlns:xsi="http://www.w3.org/2001/XMLSchema-instance" xsi:noNamespaceSchemaLocation="http://sumo.dlr.de/xsd/netconvertConfiguration.xsd">

    <input>
        <sumo-net-file value="C:\Users\phill\Documents\URAP%20-%20CARLA\Sumo%20Data%20Collection\net\Town01.net.xml"/>
    </input>

    <output>
        <output-file value="C:\Users\phill\Documents\URAP%20-%20CARLA\Sumo%20Data%20Collection\net\Town01.net.xml"/>
    </output>

    <processing>
        <geometry.min-radius.fix.railways value="false"/>
        <geometry.max-grade.fix value="false"/>
        <offset.disable-normalization value="true"/>
        <lefthand value="false"/>
    </processing>

    <junctions>
        <no-turnarounds value="true"/>
        <junctions.corner-detail value="5"/>
        <junctions.limit-turn-speed value="5.5"/>
        <rectangular-lane-cut value="true"/>
    </junctions>

    <pedestrian>
        <walkingareas value="false"/>
    </pedestrian>

</configuration>
-->

<net version="1.9" junctionCornerDetail="5" rectangularLaneCut="true" limitTurnSpeed="5.50" xmlns:xsi="http://www.w3.org/2001/XMLSchema-instance" xsi:noNamespaceSchemaLocation="http://sumo.dlr.de/xsd/net_file.xsd">

    <location netOffset="0.06,328.61" convBoundary="0.00,0.00,394.44,328.66" origBoundary="-0.06,-328.61,394.38,0.05" projParameter="!"/>

    <type id="bidirectional" priority="1" speed="1.39" disallow="pedestrian tram rail_urban rail rail_electric rail_fast ship" width="3.65"/>
    <type id="biking" priority="-1" speed="5.56" allow="bicycle" width="1.50"/>
    <type id="border" priority="0" speed="1.39" disallow="all" discard="1" width="0.10"/>
    <type id="driving" priority="1" speed="13.89" disallow="pedestrian tram rail_urban rail rail_electric rail_fast ship" width="3.65"/>
    <type id="entry" priority="1" speed="22.22" disallow="pedestrian tram rail_urban rail rail_electric rail_fast ship" width="3.65"/>
    <type id="exit" priority="1" speed="22.22" disallow="pedestrian tram rail_urban rail rail_electric rail_fast ship" width="3.65"/>
    <type id="median" priority="0" speed="1.39" disallow="all" discard="1" width="0.10"/>
    <type id="mwyEntry" priority="1" speed="22.22" allow="private emergency authority army vip passenger hov taxi bus coach delivery truck trailer motorcycle evehicle custom1 custom2" width="3.65"/>
    <type id="mwyExit" priority="1" speed="22.22" allow="private emergency authority army vip passenger hov taxi bus coach delivery truck trailer motorcycle evehicle custom1 custom2" width="3.65"/>
    <type id="none" priority="0" speed="1.39" disallow="all" discard="1" width="1.00"/>
    <type id="offRamp" priority="1" speed="22.22" allow="private emergency authority army vip passenger hov taxi bus coach delivery truck trailer motorcycle evehicle custom1 custom2" width="3.65"/>
    <type id="onRamp" priority="1" speed="22.22" allow="private emergency authority army vip passenger hov taxi bus coach delivery truck trailer motorcycle evehicle custom1 custom2" width="3.65"/>
    <type id="parking" priority="1" speed="1.39" disallow="pedestrian tram rail_urban rail rail_electric rail_fast ship" width="2.50"/>
    <type id="rail" priority="3" speed="33.33" allow="rail_urban rail rail_electric rail_fast" width="3.65"/>
    <type id="restricted" priority="0" speed="13.89" disallow="all" width="3.65"/>
    <type id="roadWorks" priority="0" speed="1.39" allow="authority" width="3.65"/>
    <type id="shoulder" priority="0" speed="1.39" disallow="all" discard="1" width="1.00"/>
    <type id="sidewalk" priority="-2" speed="2.78" allow="pedestrian" width="2.50"/>
    <type id="special1" priority="1" speed="22.22" allow="custom1" discard="1" width="3.65"/>
    <type id="special2" priority="1" speed="22.22" allow="custom2" discard="1" width="3.65"/>
    <type id="special3" priority="1" speed="22.22" allow="custom1 custom2" discard="1" width="3.65"/>
    <type id="stop" priority="1" speed="13.89" disallow="pedestrian tram rail_urban rail rail_electric rail_fast ship" width="3.65"/>
    <type id="tram" priority="2" speed="13.89" allow="tram" width="3.65"/>

    <edge id=":111_0" function="internal">
        <lane id=":111_0_0" index="0" disallow="pedestrian tram rail_urban rail rail_electric rail_fast ship" speed="8.22" length="14.75" width="4.00" shape="334.93,282.19 334.35,278.23 332.62,275.40 329.73,273.71 325.69,273.14">
            <param key="origId" value="127_-1"/>
        </lane>
    </edge>
    <edge id=":111_1" function="internal">
        <lane id=":111_1_0" index="0" disallow="pedestrian tram rail_urban rail rail_electric rail_fast ship" speed="13.89" length="22.61" width="4.00" shape="334.93,282.19 334.92,259.58">
            <param key="origId" value="122_1"/>
        </lane>
    </edge>
    <edge id=":111_2" function="internal">
        <lane id=":111_2_0" index="0" disallow="pedestrian tram rail_urban rail rail_electric rail_fast ship" speed="13.89" length="22.61" width="4.00" shape="338.92,259.58 338.93,282.19">
            <param key="origId" value="123_-1"/>
        </lane>
    </edge>
    <edge id=":111_3" function="internal">
        <lane id=":111_3_0" index="0" disallow="pedestrian tram rail_urban rail rail_electric rail_fast ship" speed="9.81" length="6.42" width="4.00" shape="338.92,259.58 338.10,265.51 337.88,265.88">
            <param key="origId" value="114_-1"/>
        </lane>
    </edge>
    <edge id=":111_6" function="internal">
        <lane id=":111_6_0" index="0" disallow="pedestrian tram rail_urban rail rail_electric rail_fast ship" speed="9.81" length="15.19" width="4.00" shape="337.88,265.88 335.62,269.75 331.48,272.29 325.69,273.14">
            <param key="origId" value="114_-1"/>
        </lane>
    </edge>
    <edge id=":111_4" function="internal">
        <lane id=":111_4_0" index="0" disallow="pedestrian tram rail_urban rail rail_electric rail_fast ship" speed="8.31" length="15.15" width="4.00" shape="325.69,269.14 329.73,268.54 332.62,266.75 334.35,263.76 334.92,259.58">
            <param key="origId" value="112_1"/>
        </lane>
    </edge>
    <edge id=":111_5" function="internal">
        <lane id=":111_5_0" index="0" disallow="pedestrian tram rail_urban rail rail_electric rail_fast ship" speed="9.73" length="21.20" width="4.00" shape="325.69,269.14 331.48,269.96 335.62,272.40 338.10,276.48 338.93,282.19">
            <param key="origId" value="126_-1"/>
        </lane>
    </edge>
    <edge id=":128_0" function="internal">
        <lane id=":128_0_0" index="0" disallow="pedestrian tram rail_urban rail rail_electric rail_fast ship" speed="13.89" length="22.00" width="4.00" shape="88.46,142.28 88.46,120.28">
            <param key="origId" value="135_1"/>
        </lane>
    </edge>
    <edge id=":128_1" function="internal">
        <lane id=":128_1_0" index="0" disallow="pedestrian tram rail_urban rail rail_electric rail_fast ship" speed="9.65" length="6.10" width="4.00" shape="88.46,142.28 89.27,136.68 89.50,136.31">
            <param key="origId" value="138_-1"/>
        </lane>
    </edge>
    <edge id=":128_6" function="internal">
        <lane id=":128_6_0" index="0" disallow="pedestrian tram rail_urban rail rail_electric rail_fast ship" speed="9.65" length="14.73" width="4.00" shape="89.50,136.31 91.72,132.67 95.78,130.27 101.48,129.47">
            <param key="origId" value="138_-1"/>
        </lane>
    </edge>
    <edge id=":128_2" function="internal">
        <lane id=":128_2_0" index="0" disallow="pedestrian tram rail_urban rail rail_electric rail_fast ship" speed="8.12" length="14.38" width="4.00" shape="101.48,133.47 97.53,134.02 94.72,135.67 93.02,138.43 92.46,142.28">
            <param key="origId" value="137_-1"/>
        </lane>
    </edge>
    <edge id=":128_3" function="internal">
        <lane id=":128_3_0" index="0" disallow="pedestrian tram rail_urban rail rail_electric rail_fast ship" speed="9.71" length="21.14" width="4.00" shape="101.48,133.47 95.78,132.65 91.71,130.17 89.27,126.05 88.46,120.28">
            <param key="origId" value="130_-1"/>
        </lane>
    </edge>
    <edge id=":128_4" function="internal">
        <lane id=":128_4_0" index="0" disallow="pedestrian tram rail_urban rail rail_electric rail_fast ship" speed="8.20" length="14.68" width="4.00" shape="92.46,120.28 93.02,124.30 94.71,127.17 97.53,128.90 101.48,129.47">
            <param key="origId" value="129_-1"/>
        </lane>
    </edge>
    <edge id=":128_5" function="internal">
        <lane id=":128_5_0" index="0" disallow="pedestrian tram rail_urban rail rail_electric rail_fast ship" speed="13.89" length="22.00" width="4.00" shape="92.46,120.28 92.46,142.28">
            <param key="origId" value="136_-1"/>
        </lane>
    </edge>
    <edge id=":139_0" function="internal">
        <lane id=":139_0_0" index="0" disallow="pedestrian tram rail_urban rail rail_electric rail_fast ship" speed="8.18" length="14.62" width="4.00" shape="334.89,208.03 334.31,204.12 332.59,201.32 329.72,199.65 325.70,199.09">
            <param key="origId" value="140_-1"/>
        </lane>
    </edge>
    <edge id=":139_1" function="internal">
        <lane id=":139_1_0" index="0" disallow="pedestrian tram rail_urban rail rail_electric rail_fast ship" speed="13.89" length="23.09" width="4.00" shape="334.89,208.03 334.87,184.94">
            <param key="origId" value="151_-1"/>
        </lane>
    </edge>
    <edge id=":139_2" function="internal">
        <lane id=":139_2_0" index="0" disallow="pedestrian tram rail_urban rail rail_electric rail_fast ship" speed="13.89" length="23.09" width="4.00" shape="338.87,184.94 338.89,208.03">
            <param key="origId" value="150_1"/>
        </lane>
    </edge>
    <edge id=":139_3" function="internal">
        <lane id=":139_3_0" index="0" disallow="pedestrian tram rail_urban rail rail_electric rail_fast ship" speed="9.90" length="6.70" width="4.00" shape="338.87,184.94 338.05,191.13 337.83,191.52">
            <param key="origId" value="154_1"/>
        </lane>
    </edge>
    <edge id=":139_6" function="internal">
        <lane id=":139_6_0" index="0" disallow="pedestrian tram rail_urban rail rail_electric rail_fast ship" speed="9.90" length="15.34" width="4.00" shape="337.83,191.52 335.58,195.55 331.46,198.20 325.70,199.09">
            <param key="origId" value="154_1"/>
        </lane>
    </edge>
    <edge id=":139_4" function="internal">
        <lane id=":139_4_0" index="0" disallow="pedestrian tram rail_urban rail rail_electric rail_fast ship" speed="8.43" length="15.59" width="4.00" shape="325.70,195.09 329.71,194.45 332.58,192.55 334.30,189.38 334.87,184.94">
            <param key="origId" value="152_-1"/>
        </lane>
    </edge>
    <edge id=":139_5" function="internal">
        <lane id=":139_5_0" index="0" disallow="pedestrian tram rail_urban rail rail_electric rail_fast ship" speed="9.70" length="21.07" width="4.00" shape="325.70,195.09 331.47,195.90 335.59,198.32 338.06,202.37 338.89,208.03">
            <param key="origId" value="141_-1"/>
        </lane>
    </edge>
    <edge id=":156_0" function="internal">
        <lane id=":156_0_0" index="0" disallow="pedestrian tram rail_urban rail rail_electric rail_fast ship" speed="13.89" length="22.00" width="4.00" shape="88.45,208.77 88.45,186.77">
            <param key="origId" value="166_-1"/>
        </lane>
    </edge>
    <edge id=":156_1" function="internal">
        <lane id=":156_1_0" index="0" disallow="pedestrian tram rail_urban rail rail_electric rail_fast ship" speed="9.78" length="6.45" width="4.00" shape="88.45,208.77 89.27,202.84 89.49,202.44">
            <param key="origId" value="158_-1"/>
        </lane>
    </edge>
    <edge id=":156_6" function="internal">
        <lane id=":156_6_0" index="0" disallow="pedestrian tram rail_urban rail rail_electric rail_fast ship" speed="9.78" length="15.00" width="4.00" shape="89.49,202.44 91.71,198.60 95.78,196.05 101.48,195.20">
            <param key="origId" value="158_-1"/>
        </lane>
    </edge>
    <edge id=":156_2" function="internal">
        <lane id=":156_2_0" index="0" disallow="pedestrian tram rail_urban rail rail_electric rail_fast ship" speed="8.28" length="15.00" width="4.00" shape="101.48,199.20 97.53,199.80 94.71,201.59 93.02,204.59 92.45,208.77">
            <param key="origId" value="157_-1"/>
        </lane>
    </edge>
    <edge id=":156_3" function="internal">
        <lane id=":156_3_0" index="0" disallow="pedestrian tram rail_urban rail rail_electric rail_fast ship" speed="9.58" length="20.54" width="4.00" shape="101.48,199.20 95.78,198.43 91.71,196.10 89.26,192.21 88.45,186.77">
            <param key="origId" value="159_-1"/>
        </lane>
    </edge>
    <edge id=":156_4" function="internal">
        <lane id=":156_4_0" index="0" disallow="pedestrian tram rail_urban rail rail_electric rail_fast ship" speed="8.04" length="14.08" width="4.00" shape="92.45,186.77 93.01,190.46 94.71,193.09 97.53,194.67 101.48,195.20">
            <param key="origId" value="160_-1"/>
        </lane>
    </edge>
    <edge id=":156_5" function="internal">
        <lane id=":156_5_0" index="0" disallow="pedestrian tram rail_urban rail rail_electric rail_fast ship" speed="13.89" length="22.00" width="4.00" shape="92.45,186.77 92.45,208.77">
            <param key="origId" value="165_1"/>
        </lane>
    </edge>
    <edge id=":167_0" function="internal">
        <lane id=":167_0_0" index="0" disallow="pedestrian tram rail_urban rail rail_electric rail_fast ship" speed="8.22" length="14.77" width="4.00" shape="154.08,282.41 153.51,278.35 151.82,275.44 149.00,273.70 145.05,273.12">
            <param key="origId" value="168_-1"/>
        </lane>
    </edge>
    <edge id=":167_1" function="internal">
        <lane id=":167_1_0" index="0" disallow="pedestrian tram rail_urban rail rail_electric rail_fast ship" speed="9.75" length="21.33" width="4.00" shape="154.08,282.41 154.89,276.60 157.36,272.44 161.47,269.95 167.23,269.12">
            <param key="origId" value="170_-1"/>
        </lane>
    </edge>
    <edge id=":167_2" function="internal">
        <lane id=":167_2_0" index="0" disallow="pedestrian tram rail_urban rail rail_electric rail_fast ship" speed="8.24" length="14.87" width="4.00" shape="167.23,273.12 163.22,273.70 160.36,275.44 158.65,278.34 158.08,282.41">
            <param key="origId" value="172_1"/>
        </lane>
    </edge>
    <edge id=":167_3" function="internal">
        <lane id=":167_3_0" index="0" disallow="pedestrian tram rail_urban rail rail_electric rail_fast ship" speed="13.89" length="22.18" width="4.00" shape="167.23,273.12 145.05,273.12">
            <param key="origId" value="178_1"/>
        </lane>
    </edge>
    <edge id=":167_4" function="internal">
        <lane id=":167_4_0" index="0" disallow="pedestrian tram rail_urban rail rail_electric rail_fast ship" speed="13.89" length="22.18" width="4.00" shape="145.05,269.12 167.23,269.12">
            <param key="origId" value="179_-1"/>
        </lane>
    </edge>
    <edge id=":167_5" function="internal">
        <lane id=":167_5_0" index="0" disallow="pedestrian tram rail_urban rail rail_electric rail_fast ship" speed="9.73" length="6.15" width="4.00" shape="145.05,269.12 150.74,269.95 151.08,270.16">
            <param key="origId" value="169_-1"/>
        </lane>
    </edge>
    <edge id=":167_6" function="internal">
        <lane id=":167_6_0" index="0" disallow="pedestrian tram rail_urban rail rail_electric rail_fast ship" speed="9.73" length="15.06" width="4.00" shape="151.08,270.16 154.81,272.44 157.26,276.60 158.08,282.41">
            <param key="origId" value="169_-1"/>
        </lane>
    </edge>
    <edge id=":184_0" function="internal">
        <lane id=":184_0_0" index="0" disallow="pedestrian tram rail_urban rail rail_electric rail_fast ship" speed="13.89" length="22.00" width="4.00" shape="88.44,282.46 88.44,260.46">
            <param key="origId" value="188_1"/>
        </lane>
    </edge>
    <edge id=":184_1" function="internal">
        <lane id=":184_1_0" index="0" disallow="pedestrian tram rail_urban rail rail_electric rail_fast ship" speed="9.74" length="6.35" width="4.00" shape="88.44,282.46 89.25,276.62 89.48,276.23">
            <param key="origId" value="193_-1"/>
        </lane>
    </edge>
    <edge id=":184_6" function="internal">
        <lane id=":184_6_0" index="0" disallow="pedestrian tram rail_urban rail rail_electric rail_fast ship" speed="9.74" length="14.91" width="4.00" shape="89.48,276.23 91.69,272.45 95.76,269.94 101.45,269.11">
            <param key="origId" value="193_-1"/>
        </lane>
    </edge>
    <edge id=":184_2" function="internal">
        <lane id=":184_2_0" index="0" disallow="pedestrian tram rail_urban rail rail_electric rail_fast ship" speed="8.23" length="14.81" width="4.00" shape="101.45,273.11 97.51,273.69 94.69,275.45 93.00,278.37 92.44,282.46">
            <param key="origId" value="194_-1"/>
        </lane>
    </edge>
    <edge id=":184_3" function="internal">
        <lane id=":184_3_0" index="0" disallow="pedestrian tram rail_urban rail rail_electric rail_fast ship" speed="9.61" length="20.69" width="4.00" shape="101.45,273.11 95.76,272.32 91.69,269.95 89.25,265.99 88.44,260.46">
            <param key="origId" value="192_-1"/>
        </lane>
    </edge>
    <edge id=":184_4" function="internal">
        <lane id=":184_4_0" index="0" disallow="pedestrian tram rail_urban rail rail_electric rail_fast ship" speed="8.08" length="14.24" width="4.00" shape="92.44,260.46 93.00,264.24 94.69,266.95 97.51,268.57 101.45,269.11">
            <param key="origId" value="191_-1"/>
        </lane>
    </edge>
    <edge id=":184_5" function="internal">
        <lane id=":184_5_0" index="0" disallow="pedestrian tram rail_urban rail rail_electric rail_fast ship" speed="13.89" length="22.00" width="4.00" shape="92.44,260.46 92.44,282.46">
            <param key="origId" value="189_-1"/>
        </lane>
    </edge>
    <edge id=":195_0" function="internal">
        <lane id=":195_0_0" index="0" disallow="pedestrian tram rail_urban rail rail_electric rail_fast ship" speed="8.21" length="14.75" width="4.00" shape="88.48,11.31 87.92,7.25 86.23,4.35 83.41,2.61 79.47,2.03">
            <param key="origId" value="196_-1"/>
        </lane>
    </edge>
    <edge id=":195_1" function="internal">
        <lane id=":195_1_0" index="0" disallow="pedestrian tram rail_urban rail rail_electric rail_fast ship" speed="9.76" length="21.36" width="4.00" shape="88.48,11.31 89.31,5.50 91.78,1.34 95.91,-1.15 101.68,-1.98">
            <param key="origId" value="200_-1"/>
        </lane>
    </edge>
    <edge id=":195_2" function="internal">
        <lane id=":195_2_0" index="0" disallow="pedestrian tram rail_urban rail rail_electric rail_fast ship" speed="8.26" length="14.91" width="4.00" shape="101.68,2.02 97.66,2.60 94.78,4.34 93.06,7.25 92.48,11.31">
            <param key="origId" value="198_1"/>
        </lane>
    </edge>
    <edge id=":195_3" function="internal">
        <lane id=":195_3_0" index="0" disallow="pedestrian tram rail_urban rail rail_electric rail_fast ship" speed="13.89" length="22.21" width="4.00" shape="101.68,2.02 79.47,2.03">
            <param key="origId" value="206_1"/>
        </lane>
    </edge>
    <edge id=":195_4" function="internal">
        <lane id=":195_4_0" index="0" disallow="pedestrian tram rail_urban rail rail_electric rail_fast ship" speed="13.89" length="22.21" width="4.00" shape="79.47,-1.97 101.68,-1.98">
            <param key="origId" value="207_-1"/>
        </lane>
    </edge>
    <edge id=":195_5" function="internal">
        <lane id=":195_5_0" index="0" disallow="pedestrian tram rail_urban rail rail_electric rail_fast ship" speed="9.72" length="6.15" width="4.00" shape="79.47,-1.97 85.16,-1.14 85.50,-0.93">
            <param key="origId" value="197_-1"/>
        </lane>
    </edge>
    <edge id=":195_6" function="internal">
        <lane id=":195_6_0" index="0" disallow="pedestrian tram rail_urban rail rail_electric rail_fast ship" speed="9.72" length="15.05" width="4.00" shape="85.50,-0.93 89.23,1.35 91.67,5.50 92.48,11.31">
            <param key="origId" value="197_-1"/>
        </lane>
    </edge>
    <edge id=":26_0" function="internal">
        <lane id=":26_0_0" index="0" disallow="pedestrian tram rail_urban rail rail_electric rail_fast ship" speed="13.89" length="23.12" width="4.00" shape="168.14,330.65 145.02,330.66">
            <param key="origId" value="38_-1"/>
        </lane>
    </edge>
    <edge id=":26_1" function="internal">
        <lane id=":26_1_0" index="0" disallow="pedestrian tram rail_urban rail rail_electric rail_fast ship" speed="9.81" length="6.69" width="4.00" shape="168.14,330.65 162.02,329.85 161.56,329.60">
            <param key="origId" value="27_1"/>
        </lane>
    </edge>
    <edge id=":26_6" function="internal">
        <lane id=":26_6_0" index="0" disallow="pedestrian tram rail_urban rail rail_electric rail_fast ship" speed="9.81" length="14.89" width="4.00" shape="161.56,329.60 157.64,327.46 155.01,323.48 154.13,317.90">
            <param key="origId" value="27_1"/>
        </lane>
    </edge>
    <edge id=":26_2" function="internal">
        <lane id=":26_2_0" index="0" disallow="pedestrian tram rail_urban rail rail_electric rail_fast ship" speed="8.32" length="15.14" width="4.00" shape="158.13,317.90 158.76,321.73 160.64,324.46 163.77,326.10 168.14,326.65">
            <param key="origId" value="29_-1"/>
        </lane>
    </edge>
    <edge id=":26_3" function="internal">
        <lane id=":26_3_0" index="0" disallow="pedestrian tram rail_urban rail rail_electric rail_fast ship" speed="9.65" length="20.87" width="4.00" shape="158.13,317.90 157.32,323.48 154.86,327.47 150.76,329.86 145.02,330.66">
            <param key="origId" value="32_-1"/>
        </lane>
    </edge>
    <edge id=":26_4" function="internal">
        <lane id=":26_4_0" index="0" disallow="pedestrian tram rail_urban rail rail_electric rail_fast ship" speed="8.12" length="14.41" width="4.00" shape="145.02,326.66 149.01,326.11 151.86,324.47 153.57,321.73 154.13,317.90">
            <param key="origId" value="31_-1"/>
        </lane>
    </edge>
    <edge id=":26_5" function="internal">
        <lane id=":26_5_0" index="0" disallow="pedestrian tram rail_urban rail rail_electric rail_fast ship" speed="13.89" length="23.12" width="4.00" shape="145.02,326.66 168.14,326.65">
            <param key="origId" value="37_1"/>
        </lane>
    </edge>
    <edge id=":43_0" function="internal">
        <lane id=":43_0_0" index="0" disallow="pedestrian tram rail_urban rail rail_electric rail_fast ship" speed="13.89" length="22.60" width="4.00" shape="348.29,330.61 325.69,330.62">
            <param key="origId" value="50_1"/>
        </lane>
    </edge>
    <edge id=":43_1" function="internal">
        <lane id=":43_1_0" index="0" disallow="pedestrian tram rail_urban rail rail_electric rail_fast ship" speed="9.70" length="6.38" width="4.00" shape="348.29,330.61 342.46,329.81 342.03,329.57">
            <param key="origId" value="56_1"/>
        </lane>
    </edge>
    <edge id=":43_6" function="internal">
        <lane id=":43_6_0" index="0" disallow="pedestrian tram rail_urban rail rail_electric rail_fast ship" speed="9.70" length="14.69" width="4.00" shape="342.03,329.57 338.29,327.42 335.79,323.42 334.95,317.82">
            <param key="origId" value="56_1"/>
        </lane>
    </edge>
    <edge id=":43_2" function="internal">
        <lane id=":43_2_0" index="0" disallow="pedestrian tram rail_urban rail rail_electric rail_fast ship" speed="8.18" length="14.62" width="4.00" shape="338.95,317.82 339.54,321.67 341.29,324.41 344.20,326.06 348.29,326.61">
            <param key="origId" value="58_-1"/>
        </lane>
    </edge>
    <edge id=":43_3" function="internal">
        <lane id=":43_3_0" index="0" disallow="pedestrian tram rail_urban rail rail_electric rail_fast ship" speed="9.68" length="21.02" width="4.00" shape="338.95,317.82 338.12,323.42 335.64,327.42 331.49,329.82 325.69,330.62">
            <param key="origId" value="45_-1"/>
        </lane>
    </edge>
    <edge id=":43_4" function="internal">
        <lane id=":43_4_0" index="0" disallow="pedestrian tram rail_urban rail rail_electric rail_fast ship" speed="8.17" length="14.57" width="4.00" shape="325.69,326.62 329.74,326.07 332.64,324.42 334.37,321.67 334.95,317.82">
            <param key="origId" value="44_-1"/>
        </lane>
    </edge>
    <edge id=":43_5" function="internal">
        <lane id=":43_5_0" index="0" disallow="pedestrian tram rail_urban rail rail_electric rail_fast ship" speed="13.89" length="22.60" width="4.00" shape="325.69,326.62 348.29,326.61">
            <param key="origId" value="51_-1"/>
        </lane>
    </edge>
    <edge id=":60_0" function="internal">
        <lane id=":60_0_0" index="0" disallow="pedestrian tram rail_urban rail rail_electric rail_fast ship" speed="8.19" length="14.64" width="4.00" shape="334.77,11.16 334.21,7.15 332.52,4.29 329.71,2.57 325.78,2.00">
            <param key="origId" value="75_-1"/>
        </lane>
    </edge>
    <edge id=":60_1" function="internal">
        <lane id=":60_1_0" index="0" disallow="pedestrian tram rail_urban rail rail_electric rail_fast ship" speed="9.70" length="21.11" width="4.00" shape="334.77,11.16 335.58,5.40 338.02,1.29 342.09,-1.18 347.79,-2.00">
            <param key="origId" value="62_-1"/>
        </lane>
    </edge>
    <edge id=":60_2" function="internal">
        <lane id=":60_2_0" index="0" disallow="pedestrian tram rail_urban rail rail_electric rail_fast ship" speed="8.19" length="14.66" width="4.00" shape="347.79,2.00 343.84,2.57 341.02,4.29 339.33,7.15 338.77,11.16">
            <param key="origId" value="61_-1"/>
        </lane>
    </edge>
    <edge id=":60_3" function="internal">
        <lane id=":60_3_0" index="0" disallow="pedestrian tram rail_urban rail rail_electric rail_fast ship" speed="13.89" length="22.01" width="4.00" shape="347.79,2.00 325.78,2.00">
            <param key="origId" value="68_-1"/>
        </lane>
    </edge>
    <edge id=":60_4" function="internal">
        <lane id=":60_4_0" index="0" disallow="pedestrian tram rail_urban rail rail_electric rail_fast ship" speed="13.89" length="22.01" width="4.00" shape="325.78,-2.00 347.79,-2.00">
            <param key="origId" value="67_1"/>
        </lane>
    </edge>
    <edge id=":60_5" function="internal">
        <lane id=":60_5_0" index="0" disallow="pedestrian tram rail_urban rail rail_electric rail_fast ship" speed="9.70" length="6.16" width="4.00" shape="325.78,-2.00 331.46,-1.18 331.82,-0.96">
            <param key="origId" value="73_1"/>
        </lane>
    </edge>
    <edge id=":60_6" function="internal">
        <lane id=":60_6_0" index="0" disallow="pedestrian tram rail_urban rail rail_electric rail_fast ship" speed="9.70" length="14.92" width="4.00" shape="331.82,-0.96 335.52,1.29 337.96,5.40 338.77,11.16">
            <param key="origId" value="73_1"/>
        </lane>
    </edge>
    <edge id=":7.14_0" function="internal">
        <lane id=":7.14_0_0" index="0" allow="pedestrian" speed="2.78" length="0.30" width="4.00" shape="384.29,6.30 383.99,6.30"/>
        <lane id=":7.14_0_1" index="1" disallow="all" speed="1.39" length="0.30" width="0.30" shape="384.29,4.15 383.99,4.15"/>
        <lane id=":7.14_0_2" index="2" disallow="pedestrian tram rail_urban rail rail_electric rail_fast ship" speed="13.89" length="0.30" width="4.00" shape="384.29,2.00 383.99,2.00"/>
    </edge>
    <edge id=":7.14_3" function="internal">
        <lane id=":7.14_3_0" index="0" allow="pedestrian" speed="2.78" length="0.30" width="4.00" shape="383.99,-6.30 384.29,-6.30"/>
        <lane id=":7.14_3_1" index="1" disallow="all" speed="1.39" length="0.30" width="0.30" shape="383.99,-4.15 384.29,-4.15"/>
        <lane id=":7.14_3_2" index="2" disallow="pedestrian tram rail_urban rail rail_electric rail_fast ship" speed="13.89" length="0.30" width="4.00" shape="383.99,-2.00 384.29,-2.00"/>
    </edge>
    <edge id=":77_0" function="internal">
        <lane id=":77_0_0" index="0" disallow="pedestrian tram rail_urban rail rail_electric rail_fast ship" speed="13.89" length="23.31" width="4.00" shape="102.75,330.66 79.44,330.65">
            <param key="origId" value="83_-1"/>
        </lane>
    </edge>
    <edge id=":77_1" function="internal">
        <lane id=":77_1_0" index="0" disallow="pedestrian tram rail_urban rail rail_electric rail_fast ship" speed="9.86" length="6.87" width="4.00" shape="102.75,330.66 96.48,329.86 96.00,329.61">
            <param key="origId" value="88_-1"/>
        </lane>
    </edge>
    <edge id=":77_6" function="internal">
        <lane id=":77_6_0" index="0" disallow="pedestrian tram rail_urban rail rail_electric rail_fast ship" speed="9.86" length="14.96" width="4.00" shape="96.00,329.61 92.01,327.48 89.32,323.50 88.43,317.94">
            <param key="origId" value="88_-1"/>
        </lane>
    </edge>
    <edge id=":77_2" function="internal">
        <lane id=":77_2_0" index="0" disallow="pedestrian tram rail_urban rail rail_electric rail_fast ship" speed="8.37" length="15.38" width="4.00" shape="92.43,317.94 93.07,321.76 95.01,324.48 98.23,326.12 102.75,326.66">
            <param key="origId" value="90_1"/>
        </lane>
    </edge>
    <edge id=":77_3" function="internal">
        <lane id=":77_3_0" index="0" disallow="pedestrian tram rail_urban rail rail_electric rail_fast ship" speed="9.62" length="20.72" width="4.00" shape="92.43,317.94 91.62,323.50 89.18,327.47 85.12,329.86 79.44,330.65">
            <param key="origId" value="93_-1"/>
        </lane>
    </edge>
    <edge id=":77_4" function="internal">