<?xml version='1.0' encoding='UTF-8'?>
<!-- generated on 2024-04-24 14:07:46 by Eclipse SUMO netconvert Version 1.14.1
<configuration xmlns:xsi="http://www.w3.org/2001/XMLSchema-instance" xsi:noNamespaceSchemaLocation="http://sumo.dlr.de/xsd/netconvertConfiguration.xsd">

    <input>
        <type-files value="C:\Users\phill\Documents\URAP%20-%20CARLA\Sumo%20Data%20Collection\CARLA%20OpenDrive%20Maps/opendrive_netconvert.typ.xml"/>
        <opendrive-files value="CARLA%20OpenDrive%20Maps/Town07.xodr"/>
    </input>

    <output>
        <output-file value="C:\Users\phill\AppData\Local\Temp\tmp3tydlyb5\Town07.net.xml"/>
        <output.original-names value="true"/>
    </output>

    <processing>
        <geometry.remove value="true"/>
        <geometry.min-radius.fix value="true"/>
    </processing>

    <tls_building>
        <tls.discard-loaded value="true"/>
    </tls_building>

    <formats>
        <opendrive.import-all-lanes value="true"/>
        <opendrive.curve-resolution value="1"/>
    </formats>

</configuration>
-->
<net xmlns:xsi="http://www.w3.org/2001/XMLSchema-instance" version="1.9" junctionCornerDetail="5" rectangularLaneCut="true" limitTurnSpeed="5.50" xsi:noNamespaceSchemaLocation="http://sumo.dlr.de/xsd/net_file.xsd">
  <location netOffset="203.03,122.66" convBoundary="0.00,0.00,287.15,370.05" origBoundary="-203.03,-122.66,84.12,247.40" projParameter="!"/>
  <type id="bidirectional" priority="1" speed="1.39" disallow="pedestrian tram rail_urban rail rail_electric rail_fast ship" width="3.65"/>
  <type id="biking" priority="-1" speed="5.56" allow="bicycle" width="1.50"/>
  <type id="border" priority="0" speed="1.39" disallow="all" discard="1" width="0.10"/>
  <type id="driving" priority="1" speed="13.89" disallow="pedestrian tram rail_urban rail rail_electric rail_fast ship" width="3.65"/>
  <type id="entry" priority="1" speed="22.22" disallow="pedestrian tram rail_urban rail rail_electric rail_fast ship" width="3.65"/>
  <type id="exit" priority="1" speed="22.22" disallow="pedestrian tram rail_urban rail rail_electric rail_fast ship" width="3.65"/>
  <type id="median" priority="0" speed="1.39" disallow="all" discard="1" width="0.10"/>
  <type id="mwyEntry" priority="1" speed="22.22" allow="private emergency authority army vip passenger hov taxi bus coach delivery truck trailer motorcycle evehicle custom1 custom2" width="3.65"/>
  <type id="mwyExit" priority="1" speed="22.22" allow="private emergency authority army vip passenger hov taxi bus coach delivery truck trailer motorcycle evehicle custom1 custom2" width="3.65"/>
  <type id="none" priority="0" speed="1.39" disallow="all" discard="1" width="1.00"/>
  <type id="offRamp" priority="1" speed="22.22" allow="private emergency authority army vip passenger hov taxi bus coach delivery truck trailer motorcycle evehicle custom1 custom2" width="3.65"/>
  <type id="onRamp" priority="1" speed="22.22" allow="private emergency authority army vip passenger hov taxi bus coach delivery truck trailer motorcycle evehicle custom1 custom2" width="3.65"/>
  <type id="parking" priority="1" speed="1.39" disallow="pedestrian tram rail_urban rail rail_electric rail_fast ship" width="2.50"/>
  <type id="rail" priority="3" speed="33.33" allow="rail_urban rail rail_electric rail_fast" width="3.65"/>
  <type id="restricted" priority="0" speed="13.89" disallow="all" width="3.65"/>
  <type id="roadWorks" priority="0" speed="1.39" allow="authority" width="3.65"/>
  <type id="shoulder" priority="0" speed="1.39" disallow="all" discard="1" width="1.00"/>
  <type id="sidewalk" priority="-2" speed="2.78" allow="pedestrian" width="2.50"/>
  <type id="special1" priority="1" speed="22.22" allow="custom1" discard="1" width="3.65"/>
  <type id="special2" priority="1" speed="22.22" allow="custom2" discard="1" width="3.65"/>
  <type id="special3" priority="1" speed="22.22" allow="custom1 custom2" discard="1" width="3.65"/>
  <type id="stop" priority="1" speed="13.89" disallow="pedestrian tram rail_urban rail rail_electric rail_fast ship" width="3.65"/>
  <type id="tram" priority="2" speed="13.89" allow="tram" width="3.65"/>
  <edge id=":121_0" function="internal">
    <lane id=":121_0_0" index="0" disallow="pedestrian tram rail_urban rail rail_electric rail_fast ship" speed="6.46" length="8.90" width="3.10" shape="50.24,79.34,0.00 49.86,76.94,0.00 48.80,75.24,0.00 47.06,74.22,0.00 44.63,73.90">
      <param key="origId" value="143_-1"/>
    </lane>
  </edge>
  <edge id=":121_1" function="internal">
    <lane id=":121_1_0" index="0" disallow="pedestrian tram rail_urban rail rail_electric rail_fast ship" speed="7.91" length="13.90" width="3.10" shape="50.24,79.34,0.00 50.73,75.58,0.00 52.33,72.88,0.00 55.02,71.25,0.00 58.80,70.68">
      <param key="origId" value="133_1"/>
    </lane>
  </edge>
  <edge id=":121_2" function="internal">
    <lane id=":121_2_0" index="0" disallow="pedestrian tram rail_urban rail rail_electric rail_fast ship" speed="6.44" length="8.89" width="3.10" shape="58.83,73.78 56.40,74.14,0.00 54.68,75.18,0.00 53.66,76.90,0.00 53.34,79.30,0.00">
      <param key="origId" value="137_-1"/>
    </lane>
  </edge>
  <edge id=":121_3" function="internal">
    <lane id=":121_3_0" index="0" disallow="pedestrian tram rail_urban rail rail_electric rail_fast ship" speed="13.89" length="14.20" width="3.10" shape="58.83,73.78 44.63,73.90">
      <param key="origId" value="126_-1"/>
    </lane>
  </edge>
  <edge id=":121_4" function="internal">
    <lane id=":121_4_0" index="0" disallow="pedestrian tram rail_urban rail rail_electric rail_fast ship" speed="13.89" length="14.20" width="3.10" shape="44.60,70.80 58.80,70.68">
      <param key="origId" value="125_1"/>
    </lane>
  </edge>
  <edge id=":121_5" function="internal">
    <lane id=":121_5_0" index="0" disallow="pedestrian tram rail_urban rail rail_electric rail_fast ship" speed="7.92" length="3.93" width="3.10" shape="44.60,70.80 48.38,71.30,0.00 48.48,71.36,0.00">
      <param key="origId" value="139_-1"/>
    </lane>
  </edge>
  <edge id=":121_6" function="internal">
    <lane id=":121_6_0" index="0" disallow="pedestrian tram rail_urban rail rail_electric rail_fast ship" speed="7.92" length="9.96" width="3.10" shape="48.48,71.36,0.00 51.10,72.89,0.00 52.75,75.55,0.00 53.34,79.30,0.00">
      <param key="origId" value="139_-1"/>
    </lane>
  </edge>
  <edge id=":144_0" function="internal">
    <lane id=":144_0_0" index="0" disallow="pedestrian tram rail_urban rail rail_electric rail_fast ship" speed="7.35" length="11.34" width="3.20" shape="10.83,74.19 7.66,74.64 5.35,75.90 3.91,77.98 3.31,80.89">
      <param key="origId" value="149_-1"/>
    </lane>
  </edge>
  <edge id=":144_1" function="internal">
    <lane id=":144_1_0" index="0" disallow="pedestrian tram rail_urban rail rail_electric rail_fast ship" speed="8.58" length="16.50" width="3.20" shape="10.83,74.19 6.32,73.60 3.09,71.72 1.13,68.56 0.44,64.11">
      <param key="origId" value="151_-1"/>
    </lane>
  </edge>
  <edge id=":144_2" function="internal">
    <lane id=":144_2_0" index="0" disallow="pedestrian tram rail_urban rail rail_electric rail_fast ship" speed="7.24" length="11.43" width="3.10" shape="3.64,64.08 4.12,67.17 5.47,69.37 7.70,70.68 10.80,71.09">
      <param key="origId" value="155_-1"/>
    </lane>
  </edge>
  <edge id=":144_3" function="internal">
    <lane id=":144_3_0" index="0" disallow="pedestrian tram rail_urban rail rail_electric rail_fast ship" speed="13.89" length="16.81" width="3.20" shape="3.64,64.08 3.31,80.89">
      <param key="origId" value="165_1"/>
    </lane>
  </edge>
  <edge id=":144_4" function="internal">
    <lane id=":144_4_0" index="0" disallow="pedestrian tram rail_urban rail rail_electric rail_fast ship" speed="13.89" length="16.62" width="3.20" shape="0.12,80.74 0.44,64.11">
      <param key="origId" value="166_-1"/>
    </lane>
  </edge>
  <edge id=":144_5" function="internal">
    <lane id=":144_5_0" index="0" disallow="pedestrian tram rail_urban rail rail_electric rail_fast ship" speed="8.70" length="4.00" width="3.10" shape="0.12,80.74 0.91,76.81">
      <param key="origId" value="145_1"/>
    </lane>
  </edge>
  <edge id=":144_6" function="internal">
    <lane id=":144_6_0" index="0" disallow="pedestrian tram rail_urban rail rail_electric rail_fast ship" speed="8.70" length="12.20" width="3.10" shape="0.91,76.81 0.96,76.55 3.02,73.55 6.30,71.73 10.80,71.09">
      <param key="origId" value="145_1"/>
    </lane>
  </edge>
  <edge id=":167_0" function="internal">
    <lane id=":167_0_0" index="0" disallow="pedestrian tram rail_urban rail rail_electric rail_fast ship" speed="7.15" length="11.13" width="3.10" shape="51.27,166.01,0.23 50.80,163.04,0.23 49.46,160.93,0.23 47.26,159.68,0.23 44.19,159.28,0.23">
      <param key="origId" value="208_-1"/>
    </lane>
  </edge>
  <edge id=":167_1" function="internal">
    <lane id=":167_1_0" index="0" disallow="pedestrian tram rail_urban rail rail_electric rail_fast ship" speed="13.89" length="16.80" width="3.10" shape="51.27,166.01,0.23 51.07,149.21,0.27">
      <param key="origId" value="187_-1"/>
    </lane>
  </edge>
  <edge id=":167_2" function="internal">
    <lane id=":167_2_0" index="0" disallow="pedestrian tram rail_urban rail rail_electric rail_fast ship" speed="8.53" length="4.25" width="3.10" shape="51.27,166.01,0.23 51.86,161.80,0.20">
      <param key="origId" value="197_-1"/>
    </lane>
  </edge>
  <edge id=":167_12" function="internal">
    <lane id=":167_12_0" index="0" disallow="pedestrian tram rail_urban rail rail_electric rail_fast ship" speed="8.53" length="12.09" width="3.10" shape="51.86,161.80,0.20 51.87,161.68,0.20 53.79,158.57,0.17 57.02,156.70,0.14 61.56,156.04,0.11">
      <param key="origId" value="197_-1"/>
    </lane>
  </edge>
  <edge id=":167_3" function="internal">
    <lane id=":167_3_0" index="0" disallow="pedestrian tram rail_urban rail rail_electric rail_fast ship" speed="7.19" length="11.33" width="3.10" shape="61.58,159.14,0.11 58.40,159.59,0.14 56.14,160.88,0.17 54.79,163.00,0.20 54.37,165.97,0.23">
      <param key="origId" value="201_1"/>
    </lane>
  </edge>
  <edge id=":167_4" function="internal">
    <lane id=":167_4_0" index="0" disallow="pedestrian tram rail_urban rail rail_electric rail_fast ship" speed="13.89" length="17.39" width="3.10" shape="61.58,159.14,0.11 44.19,159.28,0.23">
      <param key="origId" value="248_-1"/>
    </lane>
  </edge>
  <edge id=":167_5" function="internal">
    <lane id=":167_5_0" index="0" disallow="pedestrian tram rail_urban rail rail_electric rail_fast ship" speed="8.59" length="16.48" width="3.10" shape="61.58,159.14,0.11 57.03,158.55,0.15 53.76,156.70,0.19 51.78,153.58,0.23 51.07,149.21,0.27">
      <param key="origId" value="216_1"/>
    </lane>
  </edge>
  <edge id=":167_6" function="internal">
    <lane id=":167_6_0" index="0" disallow="pedestrian tram rail_urban rail rail_electric rail_fast ship" speed="7.26" length="11.49" width="3.10" shape="54.17,149.17,0.27 54.67,152.20,0.23 56.06,154.35,0.19 58.36,155.64,0.15 61.56,156.04,0.11">
      <param key="origId" value="215_-1"/>
    </lane>
  </edge>
  <edge id=":167_7" function="internal">
    <lane id=":167_7_0" index="0" disallow="pedestrian tram rail_urban rail rail_electric rail_fast ship" speed="13.89" length="16.80" width="3.10" shape="54.17,149.17,0.27 54.37,165.97,0.23">
      <param key="origId" value="186_1"/>
    </lane>
  </edge>
  <edge id=":167_8" function="internal">
    <lane id=":167_8_0" index="0" disallow="pedestrian tram rail_urban rail rail_electric rail_fast ship" speed="8.50" length="4.43" width="3.10" shape="54.17,149.17,0.27 53.59,153.56,0.26">
      <param key="origId" value="224_-1"/>
    </lane>
  </edge>
  <edge id=":167_13" function="internal">
    <lane id=":167_13_0" index="0" disallow="pedestrian tram rail_urban rail rail_electric rail_fast ship" speed="8.50" length="11.78" width="3.10" shape="53.59,153.56,0.26 51.74,156.71,0.25 48.60,158.62,0.24 44.19,159.28,0.23">
      <param key="origId" value="224_-1"/>
    </lane>
  </edge>
  <edge id=":167_9" function="internal">
    <lane id=":167_9_0" index="0" disallow="pedestrian tram rail_urban rail rail_electric rail_fast ship" speed="7.15" length="11.20" width="3.10" shape="44.17,156.18,0.23 47.22,155.72,0.24 49.39,154.41,0.25 50.67,152.24,0.26 51.07,149.21,0.27">
      <param key="origId" value="222_1"/>
    </lane>
  </edge>
  <edge id=":167_10" function="internal">
    <lane id=":167_10_0" index="0" disallow="pedestrian tram rail_urban rail rail_electric rail_fast ship" speed="13.89" length="17.39" width="3.10" shape="44.17,156.18,0.23 61.56,156.04,0.11">
      <param key="origId" value="247_1"/>
    </lane>
  </edge>
  <edge id=":167_11" function="internal">
    <lane id=":167_11_0" index="0" disallow="pedestrian tram rail_urban rail rail_electric rail_fast ship" speed="8.50" length="16.11" width="3.10" shape="44.17,156.18,0.23 48.59,156.76,0.23 51.76,158.59,0.23 53.69,161.66,0.23 54.37,165.97,0.23">
      <param key="origId" value="204_1"/>
    </lane>
  </edge>
  <edge id=":17.16_0" function="internal">
    <lane id=":17.16_0_0" index="0" allow="pedestrian" speed="2.78" length="5.27" width="2.00" shape="188.61,192.64 185.56,197.83"/>
    <lane id=":17.16_0_1" index="1" disallow="all" speed="1.39" length="5.27" width="0.63" shape="188.62,191.32 185.57,196.52"/>
    <lane id=":17.16_0_2" index="2" disallow="all" speed="1.39" length="5.27" width="0.50" shape="188.62,190.75 185.58,195.95"/>
    <lane id=":17.16_0_3" index="3" disallow="pedestrian tram rail_urban rail rail_electric rail_fast ship" speed="13.89" length="5.27" width="3.50" shape="188.64,188.75 185.64,188.73"/>
  </edge>
  <edge id=":17.16_4" function="internal">
    <lane id=":17.16_4_0" index="0" allow="pedestrian" speed="2.78" length="3.00" width="2.00" shape="185.71,181.34 188.71,181.37"/>
    <lane id=":17.16_4_1" index="1" disallow="all" speed="1.39" length="3.00" width="0.63" shape="185.70,182.66 188.70,182.69"/>
    <lane id=":17.16_4_2" index="2" disallow="all" speed="1.39" length="3.00" width="0.50" shape="185.69,183.23 188.69,183.25"/>
    <lane id=":17.16_4_3" index="3" disallow="pedestrian tram rail_urban rail rail_electric rail_fast ship" speed="13.89" length="3.00" width="3.50" shape="185.68,185.23 188.68,185.25"/>
  </edge>
  <edge id=":18.17_0" function="internal">
    <lane id=":18.17_0_0" index="0" allow="pedestrian" speed="2.78" length="5.27" width="2.00" shape="116.07,197.19 113.12,191.94"/>
    <lane id=":18.17_0_1" index="1" disallow="all" speed="1.39" length="5.27" width="0.63" shape="116.08,195.87 113.13,190.62"/>
    <lane id=":18.17_0_2" index="2" disallow="all" speed="1.39" length="5.27" width="0.50" shape="116.09,195.31 113.14,190.05"/>
    <lane id=":18.17_0_3" index="3" disallow="pedestrian tram rail_urban rail rail_electric rail_fast ship" speed="13.89" length="5.27" width="3.50" shape="116.16,188.08 113.16,188.05"/>
  </edge>
  <edge id=":18.17_4" function="internal">
    <lane id=":18.17_4_0" index="0" allow="pedestrian" speed="2.78" length="3.00" width="2.00" shape="113.22,180.67 116.22,180.70"/>
    <lane id=":18.17_4_1" index="1" disallow="all" speed="1.39" length="3.00" width="0.63" shape="113.21,181.99 116.21,182.01"/>
    <lane id=":18.17_4_2" index="2" disallow="all" speed="1.39" length="3.00" width="0.50" shape="113.21,182.55 116.21,182.58"/>
    <lane id=":18.17_4_3" index="3" disallow="pedestrian tram rail_urban rail rail_electric rail_fast ship" speed="13.89" length="3.00" width="3.50" shape="113.19,184.55 116.19,184.58"/>
  </edge>
  <edge id=":258_0" function="internal">
    <lane id=":258_0_0" index="0" disallow="pedestrian tram rail_urban rail rail_electric rail_fast ship" speed="7.34" length="12.11" width="3.50" shape="197.12,71.88 196.62,68.58,0.01 195.18,66.28,0.02 192.79,64.99,0.03 189.46,64.70,0.03">
      <param key="origId" value="284_-1"/>
    </lane>
  </edge>
  <edge id=":258_1" function="internal">
    <lane id=":258_1_0" index="0" disallow="pedestrian tram rail_urban rail rail_electric rail_fast ship" speed="9.00" length="17.45" width="3.50" shape="197.12,71.88 197.72,66.98,0.01 199.61,63.40,0.02 202.79,61.13,0.03 207.25,60.18,0.03">
      <param key="origId" value="261_1"/>
    </lane>
  </edge>
  <edge id=":258_2" function="internal">
    <lane id=":258_2_0" index="0" disallow="pedestrian tram rail_urban rail rail_electric rail_fast ship" speed="7.56" length="12.01" width="3.50" shape="207.45,63.67,0.03 204.44,64.33,0.03 202.30,65.91,0.02 201.02,68.42,0.01 200.62,71.85">
      <param key="origId" value="259_-1"/>
    </lane>
  </edge>
  <edge id=":258_3" function="internal">
    <lane id=":258_3_0" index="0" disallow="pedestrian tram rail_urban rail rail_electric rail_fast ship" speed="13.89" length="18.02" width="3.50" shape="207.45,63.67,0.03 189.46,64.70,0.03">
      <param key="origId" value="279_-1"/>
    </lane>
  </edge>
  <edge id=":258_4" function="internal">
    <lane id=":258_4_0" index="0" disallow="pedestrian tram rail_urban rail rail_electric rail_fast ship" speed="13.89" length="18.02" width="3.50" shape="189.26,61.21,0.03 207.25,60.18,0.03">
      <param key="origId" value="278_1"/>
    </lane>
  </edge>
  <edge id=":258_5" function="internal">
    <lane id=":258_5_0" index="0" disallow="pedestrian tram rail_urban rail rail_electric rail_fast ship" speed="8.81" length="17.95" width="3.50" shape="189.26,61.21,0.03 194.20,61.63,0.03 197.73,63.55,0.02 199.88,66.95,0.01 200.62,71.85">
      <param key="origId" value="280_1"/>
    </lane>
  </edge>
  <edge id=":26#1_0" function="internal">
    <lane id=":26#1_0_0" index="0" disallow="all" speed="1.39" length="3.25" width="0.50" shape="229.40,130.03,0.03 228.44,130.30,0.03 227.89,130.88,0.03 227.34,131.47,0.03 226.38,131.73,0.03"/>
    <lane id=":26#1_0_1" index="1" allow="emergency authority" speed="13.89" length="3.25" width="3.50" shape="229.41,128.89,0.03 228.50,129.02,0.03 227.90,129.31,0.03 227.31,129.60,0.03 226.40,129.73,0.03"/>
    <lane id=":26#1_0_2" index="2" disallow="pedestrian tram rail_urban rail rail_electric rail_fast ship" speed="13.89" length="3.25" width="3.50" shape="229.42,126.25,0.03 226.43,126.23,0.03"/>
  </edge>
  <edge id=":26#1_3" function="internal">
    <lane id=":26#1_3_0" index="0" allow="pedestrian" speed="2.78" length="2.97" width="2.00" shape="226.50,118.84,0.03 229.47,118.87,0.03"/>
    <lane id=":26#1_3_1" index="1" disallow="all" speed="1.39" length="2.97" width="0.63" shape="226.49,120.16,0.03 229.46,120.19,0.03"/>
    <lane id=":26#1_3_2" index="2" disallow="all" speed="1.39" length="2.97" width="0.50" shape="226.49,120.73,0.03 229.46,120.75,0.03"/>
    <lane id=":26#1_3_3" index="3" disallow="pedestrian tram rail_urban rail rail_electric rail_fast ship" speed="13.89" length="2.97" width="3.50" shape="226.47,122.73,0.03 229.44,122.75,0.03"/>
  </edge>
  <edge id=":26.25_0" function="internal">
    <lane id=":26.25_0_0" index="0" disallow="all" speed="1.39" length="8.21" width="0.50" shape="238.10,128.24,0.03 235.66,128.54,0.03 234.05,129.16,0.03 232.43,129.77,0.03 229.99,130.04,0.03"/>
    <lane id=":26.25_0_1" index="1" disallow="pedestrian tram rail_urban rail rail_electric rail_fast ship" speed="13.89" length="8.21" width="3.50" shape="238.08,126.24,0.03 230.02,126.26,0.03"/>
  </edge>
  <edge id=":26.25_2" function="internal">
    <lane id=":26.25_2_0" index="0" allow="pedestrian" speed="2.78" length="7.96" width="2.00" shape="230.06,118.87,0.03 238.00,118.85,0.03"/>
    <lane id=":26.25_2_1" index="1" disallow="all" speed="1.39" length="7.96" width="0.63" shape="230.06,120.19,0.03 238.01,120.17,0.03"/>
    <lane id=":26.25_2_2" index="2" disallow="all" speed="1.39" length="7.96" width="0.50" shape="230.05,120.76,0.03 238.02,120.74,0.03"/>
    <lane id=":26.25_2_3" index="3" disallow="pedestrian tram rail_urban rail rail_electric rail_fast ship" speed="13.89" length="7.96" width="3.50" shape="230.04,122.76,0.03 238.04,122.74,0.03"/>
  </edge>
  <edge id=":285_0" function="internal">
    <lane id=":285_0_0" index="0" disallow="pedestrian tram rail_urban rail rail_electric rail_fast ship" speed="7.71" length="13.03" width="3.50" shape="198.96,291.08 198.38,287.91,0.03 196.69,285.66,0.06 193.91,284.32,0.10 190.02,283.91,0.14">
      <param key="origId" value="290_-1"/>
    </lane>
  </edge>
  <edge id=":285_1" function="internal">
    <lane id=":285_1_0" index="0" disallow="pedestrian tram rail_urban rail rail_electric rail_fast ship" speed="13.89" length="19.84" width="3.50" shape="198.96,291.08 198.79,271.24">
      <param key="origId" value="306_-1"/>
    </lane>
  </edge>
  <edge id=":285_2" function="internal">
    <lane id=":285_2_0" index="0" disallow="pedestrian tram rail_urban rail rail_electric rail_fast ship" speed="13.89" length="19.84" width="3.50" shape="202.29,271.21 202.46,291.05">
      <param key="origId" value="305_1"/>
    </lane>
  </edge>
  <edge id=":285_3" function="internal">
    <lane id=":285_3_0" index="0" disallow="pedestrian tram rail_urban rail rail_electric rail_fast ship" speed="9.46" length="20.13" width="3.50" shape="202.29,271.21 201.56,276.72,0.04 199.28,280.68,0.07 195.43,283.07,0.10 190.02,283.91,0.14">
      <param key="origId" value="291_1"/>
    </lane>
  </edge>
  <edge id=":285_4" function="internal">
    <lane id=":285_4_0" index="0" disallow="pedestrian tram rail_urban rail rail_electric rail_fast ship" speed="8.11" length="14.49" width="3.50" shape="189.99,280.41,0.14 193.87,279.80,0.10 196.63,278.07,0.07 198.27,275.22,0.04 198.79,271.24">
      <param key="origId" value="295_-1"/>
    </lane>
  </edge>
  <edge id=":285_5" function="internal">
    <lane id=":285_5_0" index="0" disallow="pedestrian tram rail_urban rail rail_electric rail_fast ship" speed="9.12" length="18.67" width="3.50" shape="189.99,280.41,0.14 195.41,281.03,0.10 199.29,283.01,0.07 201.64,286.35,0.04 202.46,291.05">
      <param key="origId" value="286_-1"/>
    </lane>
  </edge>
  <edge id=":310_0" function="internal">
    <lane id=":310_0_0" index="0" disallow="pedestrian tram rail_urban rail rail_electric rail_fast ship" speed="13.89" length="14.99" width="3.50" shape="186.59,231.60,0.00 171.60,231.65,0.00">
      <param key="origId" value="326_-1"/>
    </lane>
  </edge>
  <edge id=":310_1" function="internal">
    <lane id=":310_1_0" index="0" disallow="pedestrian tram rail_urban rail rail_electric rail_fast ship" speed="7.57" length="11.70" width="3.50" shape="179.29,220.61 179.99,223.89,0.00 181.44,226.24,0.00 183.64,227.64,0.00 186.58,228.10,0.00">
      <param key="origId" value="311_-1"/>
    </lane>
  </edge>
  <edge id=":310_2" function="internal">
    <lane id=":310_2_0" index="0" disallow="pedestrian tram rail_urban rail rail_electric rail_fast ship" speed="13.89" length="14.99" width="3.50" shape="171.59,228.15,0.00 186.58,228.10,0.00">
      <param key="origId" value="325_1"/>
    </lane>
  </edge>
  <edge id=":327_0" function="internal">
    <lane id=":327_0_0" index="0" disallow="pedestrian tram rail_urban rail rail_electric rail_fast ship" speed="13.89" length="12.85" width="3.50" shape="274.41,67.66,0.03 271.40,65.35,0.03 269.13,64.02,0.03 266.63,63.20,0.03 262.91,62.44,0.03">
      <param key="origId" value="339_1"/>
    </lane>
  </edge>
  <edge id=":327_1" function="internal">
    <lane id=":327_1_0" index="0" disallow="pedestrian tram rail_urban rail rail_electric rail_fast ship" speed="9.62" length="3.66" width="3.20" shape="274.41,67.66,0.03 272.21,65.20,0.02 272.08,64.86,0.02">
      <param key="origId" value="346_1"/>
    </lane>
  </edge>
  <edge id=":327_6" function="internal">
    <lane id=":327_6_0" index="0" disallow="pedestrian tram rail_urban rail rail_electric rail_fast ship" speed="9.62" length="11.13" width="3.20" shape="272.08,64.86,0.02 271.04,62.10,0.01 270.90,58.37,0.01 271.78,54.01">
      <param key="origId" value="346_1"/>
    </lane>
  </edge>
  <edge id=":327_2" function="internal">
    <lane id=":327_2_0" index="0" disallow="pedestrian tram rail_urban rail rail_electric rail_fast ship" speed="8.27" length="10.78" width="3.50" shape="274.85,54.93 274.18,58.16,0.01 274.24,60.91,0.02 275.05,63.16,0.02 276.58,64.92,0.03">
      <param key="origId" value="344_-1"/>
    </lane>
  </edge>
  <edge id=":327_3" function="internal">
    <lane id=":327_3_0" index="0" disallow="pedestrian tram rail_urban rail rail_electric rail_fast ship" speed="8.73" length="15.74" width="3.50" shape="274.85,54.93 273.07,58.86,0.01 270.49,61.43,0.01 267.10,62.62,0.02 262.91,62.44,0.03">
      <param key="origId" value="329_1"/>
    </lane>
  </edge>
  <edge id=":327_4" function="internal">
    <lane id=":327_4_0" index="0" disallow="pedestrian tram rail_urban rail rail_electric rail_fast ship" speed="7.34" length="10.73" width="3.20" shape="263.56,59.00,0.03 266.46,59.14,0.02 268.80,58.35,0.01 270.57,56.64,0.01 271.78,54.01">
      <param key="origId" value="328_-1"/>
    </lane>
  </edge>
  <edge id=":327_5" function="internal">
    <lane id=":327_5_0" index="0" disallow="pedestrian tram rail_urban rail rail_electric rail_fast ship" speed="13.89" length="14.57" width="3.50" shape="263.56,59.00,0.03 267.77,59.86,0.03 270.61,60.79,0.03 273.17,62.30,0.03 276.58,64.92,0.03">
      <param key="origId" value="340_-1"/>
    </lane>
  </edge>
  <edge id=":350_0" function="internal">
    <lane id=":350_0_0" index="0" disallow="pedestrian tram rail_urban rail rail_electric rail_fast ship" speed="7.66" length="9.59" width="3.50" shape="105.24,224.49,0.04 103.73,223.24,0.03 101.73,222.67,0.02 99.26,222.79,0.01 96.30,223.58">
      <param key="origId" value="351_1"/>
    </lane>
  </edge>
  <edge id=":350_1" function="internal">
    <lane id=":350_1_0" index="0" disallow="pedestrian tram rail_urban rail rail_electric rail_fast ship" speed="13.89" length="16.69" width="3.50" shape="105.24,224.49,0.04 102.41,220.54,0.03 101.09,217.41,0.02 100.70,213.94,0.01 100.69,209.00">
      <param key="origId" value="383_-1"/>
    </lane>
  </edge>
  <edge id=":350_2" function="internal">
    <lane id=":350_2_0" index="0" disallow="pedestrian tram rail_urban rail rail_electric rail_fast ship" speed="13.89" length="14.32" width="3.50" shape="104.19,208.99 104.18,213.23,0.01 104.47,216.22,0.02 105.57,218.92,0.03 107.98,222.32,0.04">
      <param key="origId" value="388_-1"/>
    </lane>
  </edge>
  <edge id=":350_3" function="internal">
    <lane id=":350_3_0" index="0" disallow="pedestrian tram rail_urban rail rail_electric rail_fast ship" speed="10.27" length="6.01" width="3.50" shape="104.19,208.99 103.71,214.32 103.49,214.94">
      <param key="origId" value="381_1"/>
    </lane>
  </edge>
  <edge id=":350_6" function="internal">
    <lane id=":350_6_0" index="0" disallow="pedestrian tram rail_urban rail rail_electric rail_fast ship" speed="10.27" length="11.74" width="3.50" shape="103.49,214.94 102.23,218.53 99.76,221.62 96.30,223.58">
      <param key="origId" value="381_1"/>
    </lane>
  </edge>
  <edge id=":350_4" function="internal">
    <lane id=":350_4_0" index="0" disallow="pedestrian tram rail_urban rail rail_electric rail_fast ship" speed="9.05" length="13.43" width="3.50" shape="95.11,220.29 97.56,218.81 99.30,216.44 100.35,213.17 100.69,209.00">
      <param key="origId" value="382_-1"/>
    </lane>
  </edge>
  <edge id=":350_5" function="internal">
    <lane id=":350_5_0" index="0" disallow="pedestrian tram rail_urban rail rail_electric rail_fast ship" speed="9.08" length="13.98" width="3.50" shape="95.11,220.29 99.18,219.22,0.01 102.68,219.20,0.02 105.61,220.23,0.03 107.98,222.32,0.04">
      <param key="origId" value="356_-1"/>
    </lane>
  </edge>
  <edge id=":389_0" function="internal">
    <lane id=":389_0_0" index="0" disallow="pedestrian tram rail_urban rail rail_electric rail_fast ship" speed="7.42" length="11.80" width="3.50" shape="198.16,195.96 197.67,192.84 196.26,190.60 193.92,189.25 190.66,188.77">
      <param key="origId" value="405_-1"/>
    </lane>
  </edge>
  <edge id=":389_1" function="internal">
    <lane id=":389_1_0" index="0" disallow="pedestrian tram rail_urban rail rail_electric rail_fast ship" speed="13.89" length="18.00" width="3.50" shape="198.16,195.96 198.01,177.96">
      <param key="origId" value="398_-1"/>
    </lane>
  </edge>
  <edge id=":389_2" function="internal">
    <lane id=":389_2_0" index="0" disallow="pedestrian tram rail_urban rail rail_electric rail_fast ship" speed="13.89" length="18.00" width="3.50" shape="201.51,177.93 201.66,195.94">
      <param key="origId" value="397_1"/>
    </lane>
  </edge>
  <edge id=":389_3" function="internal">
    <lane id=":389_3_0" index="0" disallow="pedestrian tram rail_urban rail rail_electric rail_fast ship" speed="8.81" length="17.56" width="3.50" shape="201.51,177.93 200.87,182.71 198.84,186.11 195.44,188.13 190.66,188.77">
      <param key="origId" value="411_-1"/>
    </lane>
  </edge>
  <edge id=":389_4" function="internal">
    <lane id=":389_4_0" index="0" disallow="pedestrian tram rail_urban rail rail_electric rail_fast ship" speed="7.34" length="11.84" width="3.50" shape="190.69,185.27 193.92,184.84 196.21,183.48 197.58,181.19 198.01,177.96">
      <param key="origId" value="416_-1"/>
    </lane>
  </edge>
  <edge id=":389_5" function="internal">
    <lane id=":389_5_0" index="0" disallow="pedestrian tram rail_urban rail rail_electric rail_fast ship" speed="8.88" length="17.37" width="3.50" shape="190.69,185.27 195.46,185.98 198.87,187.99 200.94,191.31 201.66,195.94">
      <param key="origId" value="407_1"/>
    </lane>
  </edge>
  <edge id=":417_0" function="internal">
    <lane id=":417_0_0" index="0" disallow="pedestrian tram rail_urban rail rail_electric rail_fast ship" speed="13.89" length="18.70" width="3.20" shape="1.41,167.53 0.78,148.84">
      <param key="origId" value="439_-1"/>
    </lane>
  </edge>
  <edge id=":417_1" function="internal">